version 3
run General-0-20250302-19:29:42-22224
attr configname General
attr datetime 20250302-19:29:42
attr datetimef 20250302-192942
attr experiment General
attr inifile omnetpp.ini
attr iterationvars ""
attr iterationvarsd ""
attr iterationvarsf ""
attr measurement ""
attr network NSFNet_Network_MAN
attr processid 22224
attr repetition 0
attr replication #0
attr resultdir results
attr runnumber 0
attr seedset 0
config network NSFNet_Network_MAN
config record-eventlog false
config *.*.source.numberOfNodes 14
config *.*.sink.numberOfNodes 14
config *.*.*.*.*.*.*.headerLength 20
config *.*.*.optical_Switch.numWavelengths 1500
config *.*.*.message_Processor.numWavelengths 1500
config *.*.*.message_Processor.timeLimitProcess 1000e-3
config *.*.*.message_Processor.resourseTolerationTime1 80e-3
config *.*.*.message_Processor.resourseTolerationTime2 240e-3
config *.*.*.message_Processor.resourseTolerationTime3 400e-3
config *.*.source.messageTimeGeneration 3.23e-6
config *.*.*.optical_Switch.lossProbability 0
config *.*.*.optical_Switch.lossDelay 10e-3
config *.*.*.*.*.*.bufferClass1.msgLimitClass 67
config *.*.*.*.*.*.bufferClass2.msgLimitClass 20
config *.*.*.*.*.*.bufferClass3.msgLimitClass 27
config *.*.*.*.*.*.bufferClass1.timeLimitClass 40e-3
config *.*.*.*.*.*.bufferClass2.timeLimitClass 120e-3
config *.*.*.*.*.*.bufferClass3.timeLimitClass 200e-3
config *.*.*.*.*.*.bufferClass1.processDelay 10e-6
config *.*.*.*.*.*.bufferClass2.processDelay 10e-6
config *.*.*.*.*.*.bufferClass3.processDelay 10e-6
config *.*.*.*.*.*.CoS_Classifier.processDelay 3e-6
config *.*.*.*.Destination_Classifier.processDelay 3e-6
config *.*.*.*.OEO.processDelay 1e-6
config *.*.*.inOEO.processDelay 1e-6
config *.*.*.outOEO.processDelay 1e-6
config *.*.*.*.*.OEO.processDelay 1e-6
config *.*.*.*.sender.buffer.processDelay 5e-6
config *.*.*.disassembler.deconformer.processDelay 10e-6
config *.*.*.core_CU.processDelay 10e-6
config *.*.*.optical_Switch.processDelay 5e-6
config *.controller.controller_CU.message_Processor.processDelay 5e-6
config *.controller.inOEO.processDelay 1e-6
config *.controller.outOEO.processDelay 1e-6
config *.controller.controller_Classifier.processDelay 3e-6

par NSFNet_Network_MAN.Host1.outHost.channel typename "\"opticalFiber\""
par NSFNet_Network_MAN.Host1.outHost.channel disabled false
attr mutable ""
par NSFNet_Network_MAN.Host1.outHost.channel delay 9.52381e-07s
attr mutable ""
attr unit s
par NSFNet_Network_MAN.Host1.outHost.channel distance 200m
attr unit m
par NSFNet_Network_MAN.Host1.outHost.channel speedOfLightFactor 0.7
par NSFNet_Network_MAN.Node1.outToHost.channel typename "\"opticalFiber\""
par NSFNet_Network_MAN.Node1.outToHost.channel disabled false
attr mutable ""
par NSFNet_Network_MAN.Node1.outToHost.channel delay 9.52381e-07s
attr mutable ""
attr unit s
par NSFNet_Network_MAN.Node1.outToHost.channel distance 200m
attr unit m
par NSFNet_Network_MAN.Node1.outToHost.channel speedOfLightFactor 0.7
par NSFNet_Network_MAN.Node1.outToController.channel typename "\"opticalFiberC\""
par NSFNet_Network_MAN.Node1.outToController.channel disabled false
attr mutable ""
par NSFNet_Network_MAN.Node1.outToController.channel delay 0.003s
attr mutable ""
attr unit s
par NSFNet_Network_MAN.Node1.outToController.channel distance 630000m
attr unit m
par NSFNet_Network_MAN.Node1.outToController.channel speedOfLightFactor 0.7
par NSFNet_Network_MAN.controller.outController[0].channel typename "\"opticalFiberC\""
par NSFNet_Network_MAN.controller.outController[0].channel disabled false
attr mutable ""
par NSFNet_Network_MAN.controller.outController[0].channel delay 0.003s
attr mutable ""
attr unit s
par NSFNet_Network_MAN.controller.outController[0].channel distance 630000m
attr unit m
par NSFNet_Network_MAN.controller.outController[0].channel speedOfLightFactor 0.7
par NSFNet_Network_MAN.Node1.outToNetwork[0].channel typename "\"opticalFiber\""
par NSFNet_Network_MAN.Node1.outToNetwork[0].channel disabled false
attr mutable ""
par NSFNet_Network_MAN.Node1.outToNetwork[0].channel delay 0.001s
attr mutable ""
attr unit s
par NSFNet_Network_MAN.Node1.outToNetwork[0].channel distance 210000m
attr unit m
par NSFNet_Network_MAN.Node1.outToNetwork[0].channel speedOfLightFactor 0.7
par NSFNet_Network_MAN.Node1.outToNetwork[1].channel typename "\"opticalFiber\""
par NSFNet_Network_MAN.Node1.outToNetwork[1].channel disabled false
attr mutable ""
par NSFNet_Network_MAN.Node1.outToNetwork[1].channel delay 0.00142857s
attr mutable ""
attr unit s
par NSFNet_Network_MAN.Node1.outToNetwork[1].channel distance 300000m
attr unit m
par NSFNet_Network_MAN.Node1.outToNetwork[1].channel speedOfLightFactor 0.7
par NSFNet_Network_MAN.Node1.outToNetwork[2].channel typename "\"opticalFiber\""
par NSFNet_Network_MAN.Node1.outToNetwork[2].channel disabled false
attr mutable ""
par NSFNet_Network_MAN.Node1.outToNetwork[2].channel delay 0.00228571s
attr mutable ""
attr unit s
par NSFNet_Network_MAN.Node1.outToNetwork[2].channel distance 480000m
attr unit m
par NSFNet_Network_MAN.Node1.outToNetwork[2].channel speedOfLightFactor 0.7
par NSFNet_Network_MAN.Node1.outToNetwork[3].channel typename "\"opticalFiber\""
par NSFNet_Network_MAN.Node1.outToNetwork[3].channel disabled false
attr mutable ""
par NSFNet_Network_MAN.Node1.outToNetwork[3].channel delay 4.7619e-08s
attr mutable ""
attr unit s
par NSFNet_Network_MAN.Node1.outToNetwork[3].channel distance 10m
attr unit m
par NSFNet_Network_MAN.Node1.outToNetwork[3].channel speedOfLightFactor 0.7
par NSFNet_Network_MAN.Host2.outHost.channel typename "\"opticalFiber\""
par NSFNet_Network_MAN.Host2.outHost.channel disabled false
attr mutable ""
par NSFNet_Network_MAN.Host2.outHost.channel delay 9.52381e-07s
attr mutable ""
attr unit s
par NSFNet_Network_MAN.Host2.outHost.channel distance 200m
attr unit m
par NSFNet_Network_MAN.Host2.outHost.channel speedOfLightFactor 0.7
par NSFNet_Network_MAN.Node2.outToHost.channel typename "\"opticalFiber\""
par NSFNet_Network_MAN.Node2.outToHost.channel disabled false
attr mutable ""
par NSFNet_Network_MAN.Node2.outToHost.channel delay 9.52381e-07s
attr mutable ""
attr unit s
par NSFNet_Network_MAN.Node2.outToHost.channel distance 200m
attr unit m
par NSFNet_Network_MAN.Node2.outToHost.channel speedOfLightFactor 0.7
par NSFNet_Network_MAN.Node2.outToController.channel typename "\"opticalFiberC\""
par NSFNet_Network_MAN.Node2.outToController.channel disabled false
attr mutable ""
par NSFNet_Network_MAN.Node2.outToController.channel delay 0.00185714s
attr mutable ""
attr unit s
par NSFNet_Network_MAN.Node2.outToController.channel distance 390000m
attr unit m
par NSFNet_Network_MAN.Node2.outToController.channel speedOfLightFactor 0.7
par NSFNet_Network_MAN.controller.outController[1].channel typename "\"opticalFiberC\""
par NSFNet_Network_MAN.controller.outController[1].channel disabled false
attr mutable ""
par NSFNet_Network_MAN.controller.outController[1].channel delay 0.00185714s
attr mutable ""
attr unit s
par NSFNet_Network_MAN.controller.outController[1].channel distance 390000m
attr unit m
par NSFNet_Network_MAN.controller.outController[1].channel speedOfLightFactor 0.7
par NSFNet_Network_MAN.Node2.outToNetwork[0].channel typename "\"opticalFiber\""
par NSFNet_Network_MAN.Node2.outToNetwork[0].channel disabled false
attr mutable ""
par NSFNet_Network_MAN.Node2.outToNetwork[0].channel delay 0.001s
attr mutable ""
attr unit s
par NSFNet_Network_MAN.Node2.outToNetwork[0].channel distance 210000m
attr unit m
par NSFNet_Network_MAN.Node2.outToNetwork[0].channel speedOfLightFactor 0.7
par NSFNet_Network_MAN.Node2.outToNetwork[1].channel typename "\"opticalFiber\""
par NSFNet_Network_MAN.Node2.outToNetwork[1].channel disabled false
attr mutable ""
par NSFNet_Network_MAN.Node2.outToNetwork[1].channel delay 0.000714286s
attr mutable ""
attr unit s
par NSFNet_Network_MAN.Node2.outToNetwork[1].channel distance 150000m
attr unit m
par NSFNet_Network_MAN.Node2.outToNetwork[1].channel speedOfLightFactor 0.7
par NSFNet_Network_MAN.Node2.outToNetwork[2].channel typename "\"opticalFiber\""
par NSFNet_Network_MAN.Node2.outToNetwork[2].channel disabled false
attr mutable ""
par NSFNet_Network_MAN.Node2.outToNetwork[2].channel delay 0.000571429s
attr mutable ""
attr unit s
par NSFNet_Network_MAN.Node2.outToNetwork[2].channel distance 120000m
attr unit m
par NSFNet_Network_MAN.Node2.outToNetwork[2].channel speedOfLightFactor 0.7
par NSFNet_Network_MAN.Node2.outToNetwork[3].channel typename "\"opticalFiber\""
par NSFNet_Network_MAN.Node2.outToNetwork[3].channel disabled false
attr mutable ""
par NSFNet_Network_MAN.Node2.outToNetwork[3].channel delay 4.7619e-08s
attr mutable ""
attr unit s
par NSFNet_Network_MAN.Node2.outToNetwork[3].channel distance 10m
attr unit m
par NSFNet_Network_MAN.Node2.outToNetwork[3].channel speedOfLightFactor 0.7
par NSFNet_Network_MAN.Host3.outHost.channel typename "\"opticalFiber\""
par NSFNet_Network_MAN.Host3.outHost.channel disabled false
attr mutable ""
par NSFNet_Network_MAN.Host3.outHost.channel delay 9.52381e-07s
attr mutable ""
attr unit s
par NSFNet_Network_MAN.Host3.outHost.channel distance 200m
attr unit m
par NSFNet_Network_MAN.Host3.outHost.channel speedOfLightFactor 0.7
par NSFNet_Network_MAN.Node3.outToHost.channel typename "\"opticalFiber\""
par NSFNet_Network_MAN.Node3.outToHost.channel disabled false
attr mutable ""
par NSFNet_Network_MAN.Node3.outToHost.channel delay 9.52381e-07s
attr mutable ""
attr unit s
par NSFNet_Network_MAN.Node3.outToHost.channel distance 200m
attr unit m
par NSFNet_Network_MAN.Node3.outToHost.channel speedOfLightFactor 0.7
par NSFNet_Network_MAN.Node3.outToController.channel typename "\"opticalFiberC\""
par NSFNet_Network_MAN.Node3.outToController.channel disabled false
attr mutable ""
par NSFNet_Network_MAN.Node3.outToController.channel delay 0.00242857s
attr mutable ""
attr unit s
par NSFNet_Network_MAN.Node3.outToController.channel distance 510000m
attr unit m
par NSFNet_Network_MAN.Node3.outToController.channel speedOfLightFactor 0.7
par NSFNet_Network_MAN.controller.outController[2].channel typename "\"opticalFiberC\""
par NSFNet_Network_MAN.controller.outController[2].channel disabled false
attr mutable ""
par NSFNet_Network_MAN.controller.outController[2].channel delay 0.00242857s
attr mutable ""
attr unit s
par NSFNet_Network_MAN.controller.outController[2].channel distance 510000m
attr unit m
par NSFNet_Network_MAN.controller.outController[2].channel speedOfLightFactor 0.7
par NSFNet_Network_MAN.Node3.outToNetwork[0].channel typename "\"opticalFiber\""
par NSFNet_Network_MAN.Node3.outToNetwork[0].channel disabled false
attr mutable ""
par NSFNet_Network_MAN.Node3.outToNetwork[0].channel delay 0.00171429s
attr mutable ""
attr unit s
par NSFNet_Network_MAN.Node3.outToNetwork[0].channel distance 360000m
attr unit m
par NSFNet_Network_MAN.Node3.outToNetwork[0].channel speedOfLightFactor 0.7
par NSFNet_Network_MAN.Node3.outToNetwork[1].channel typename "\"opticalFiber\""
par NSFNet_Network_MAN.Node3.outToNetwork[1].channel disabled false
attr mutable ""
par NSFNet_Network_MAN.Node3.outToNetwork[1].channel delay 0.00142857s
attr mutable ""
attr unit s
par NSFNet_Network_MAN.Node3.outToNetwork[1].channel distance 300000m
attr unit m
par NSFNet_Network_MAN.Node3.outToNetwork[1].channel speedOfLightFactor 0.7
par NSFNet_Network_MAN.Node3.outToNetwork[2].channel typename "\"opticalFiber\""
par NSFNet_Network_MAN.Node3.outToNetwork[2].channel disabled false
attr mutable ""
par NSFNet_Network_MAN.Node3.outToNetwork[2].channel delay 0.000571429s
attr mutable ""
attr unit s
par NSFNet_Network_MAN.Node3.outToNetwork[2].channel distance 120000m
attr unit m
par NSFNet_Network_MAN.Node3.outToNetwork[2].channel speedOfLightFactor 0.7
par NSFNet_Network_MAN.Node3.outToNetwork[3].channel typename "\"opticalFiber\""
par NSFNet_Network_MAN.Node3.outToNetwork[3].channel disabled false
attr mutable ""
par NSFNet_Network_MAN.Node3.outToNetwork[3].channel delay 4.7619e-08s
attr mutable ""
attr unit s
par NSFNet_Network_MAN.Node3.outToNetwork[3].channel distance 10m
attr unit m
par NSFNet_Network_MAN.Node3.outToNetwork[3].channel speedOfLightFactor 0.7
par NSFNet_Network_MAN.Host4.outHost.channel typename "\"opticalFiber\""
par NSFNet_Network_MAN.Host4.outHost.channel disabled false
attr mutable ""
par NSFNet_Network_MAN.Host4.outHost.channel delay 9.52381e-07s
attr mutable ""
attr unit s
par NSFNet_Network_MAN.Host4.outHost.channel distance 200m
attr unit m
par NSFNet_Network_MAN.Host4.outHost.channel speedOfLightFactor 0.7
par NSFNet_Network_MAN.Node4.outToHost.channel typename "\"opticalFiber\""
par NSFNet_Network_MAN.Node4.outToHost.channel disabled false
attr mutable ""
par NSFNet_Network_MAN.Node4.outToHost.channel delay 9.52381e-07s
attr mutable ""
attr unit s
par NSFNet_Network_MAN.Node4.outToHost.channel distance 200m
attr unit m
par NSFNet_Network_MAN.Node4.outToHost.channel speedOfLightFactor 0.7
par NSFNet_Network_MAN.Node4.outToController.channel typename "\"opticalFiberC\""
par NSFNet_Network_MAN.Node4.outToController.channel disabled false
attr mutable ""
par NSFNet_Network_MAN.Node4.outToController.channel delay 0.00114286s
attr mutable ""
attr unit s
par NSFNet_Network_MAN.Node4.outToController.channel distance 240000m
attr unit m
par NSFNet_Network_MAN.Node4.outToController.channel speedOfLightFactor 0.7
par NSFNet_Network_MAN.controller.outController[3].channel typename "\"opticalFiberC\""
par NSFNet_Network_MAN.controller.outController[3].channel disabled false
attr mutable ""
par NSFNet_Network_MAN.controller.outController[3].channel delay 0.00114286s
attr mutable ""
attr unit s
par NSFNet_Network_MAN.controller.outController[3].channel distance 240000m
attr unit m
par NSFNet_Network_MAN.controller.outController[3].channel speedOfLightFactor 0.7
par NSFNet_Network_MAN.Node4.outToNetwork[0].channel typename "\"opticalFiber\""
par NSFNet_Network_MAN.Node4.outToNetwork[0].channel disabled false
attr mutable ""
par NSFNet_Network_MAN.Node4.outToNetwork[0].channel delay 0.000571429s
attr mutable ""
attr unit s
par NSFNet_Network_MAN.Node4.outToNetwork[0].channel distance 120000m
attr unit m
par NSFNet_Network_MAN.Node4.outToNetwork[0].channel speedOfLightFactor 0.7
par NSFNet_Network_MAN.Node4.outToNetwork[1].channel typename "\"opticalFiber\""
par NSFNet_Network_MAN.Node4.outToNetwork[1].channel disabled false
attr mutable ""
par NSFNet_Network_MAN.Node4.outToNetwork[1].channel delay 0.000714286s
attr mutable ""
attr unit s
par NSFNet_Network_MAN.Node4.outToNetwork[1].channel distance 150000m
attr unit m
par NSFNet_Network_MAN.Node4.outToNetwork[1].channel speedOfLightFactor 0.7
par NSFNet_Network_MAN.Node4.outToNetwork[2].channel typename "\"opticalFiber\""
par NSFNet_Network_MAN.Node4.outToNetwork[2].channel disabled false
attr mutable ""
par NSFNet_Network_MAN.Node4.outToNetwork[2].channel delay 0.00185714s
attr mutable ""
attr unit s
par NSFNet_Network_MAN.Node4.outToNetwork[2].channel distance 390000m
attr unit m
par NSFNet_Network_MAN.Node4.outToNetwork[2].channel speedOfLightFactor 0.7
par NSFNet_Network_MAN.Node4.outToNetwork[3].channel typename "\"opticalFiber\""
par NSFNet_Network_MAN.Node4.outToNetwork[3].channel disabled false
attr mutable ""
par NSFNet_Network_MAN.Node4.outToNetwork[3].channel delay 4.7619e-08s
attr mutable ""
attr unit s
par NSFNet_Network_MAN.Node4.outToNetwork[3].channel distance 10m
attr unit m
par NSFNet_Network_MAN.Node4.outToNetwork[3].channel speedOfLightFactor 0.7
par NSFNet_Network_MAN.Host5.outHost.channel typename "\"opticalFiber\""
par NSFNet_Network_MAN.Host5.outHost.channel disabled false
attr mutable ""
par NSFNet_Network_MAN.Host5.outHost.channel delay 9.52381e-07s
attr mutable ""
attr unit s
par NSFNet_Network_MAN.Host5.outHost.channel distance 200m
attr unit m
par NSFNet_Network_MAN.Host5.outHost.channel speedOfLightFactor 0.7
par NSFNet_Network_MAN.Node5.outToHost.channel typename "\"opticalFiber\""
par NSFNet_Network_MAN.Node5.outToHost.channel disabled false
attr mutable ""
par NSFNet_Network_MAN.Node5.outToHost.channel delay 9.52381e-07s
attr mutable ""
attr unit s
par NSFNet_Network_MAN.Node5.outToHost.channel distance 200m
attr unit m
par NSFNet_Network_MAN.Node5.outToHost.channel speedOfLightFactor 0.7
par NSFNet_Network_MAN.Node5.outToController.channel typename "\"opticalFiberC\""
par NSFNet_Network_MAN.Node5.outToController.channel disabled false
attr mutable ""
par NSFNet_Network_MAN.Node5.outToController.channel delay 0.000571429s
attr mutable ""
attr unit s
par NSFNet_Network_MAN.Node5.outToController.channel distance 120000m
attr unit m
par NSFNet_Network_MAN.Node5.outToController.channel speedOfLightFactor 0.7
par NSFNet_Network_MAN.controller.outController[4].channel typename "\"opticalFiberC\""
par NSFNet_Network_MAN.controller.outController[4].channel disabled false
attr mutable ""
par NSFNet_Network_MAN.controller.outController[4].channel delay 0.000571429s
attr mutable ""
attr unit s
par NSFNet_Network_MAN.controller.outController[4].channel distance 120000m
attr unit m
par NSFNet_Network_MAN.controller.outController[4].channel speedOfLightFactor 0.7
par NSFNet_Network_MAN.Node5.outToNetwork[0].channel typename "\"opticalFiber\""
par NSFNet_Network_MAN.Node5.outToNetwork[0].channel disabled false
attr mutable ""
par NSFNet_Network_MAN.Node5.outToNetwork[0].channel delay 0.000571429s
attr mutable ""
attr unit s
par NSFNet_Network_MAN.Node5.outToNetwork[0].channel distance 120000m
attr unit m
par NSFNet_Network_MAN.Node5.outToNetwork[0].channel speedOfLightFactor 0.7
par NSFNet_Network_MAN.Node5.outToNetwork[1].channel typename "\"opticalFiber\""
par NSFNet_Network_MAN.Node5.outToNetwork[1].channel disabled false
attr mutable ""
par NSFNet_Network_MAN.Node5.outToNetwork[1].channel delay 0.000571429s
attr mutable ""
attr unit s
par NSFNet_Network_MAN.Node5.outToNetwork[1].channel distance 120000m
attr unit m
par NSFNet_Network_MAN.Node5.outToNetwork[1].channel speedOfLightFactor 0.7
par NSFNet_Network_MAN.Node5.outToNetwork[2].channel typename "\"opticalFiber\""
par NSFNet_Network_MAN.Node5.outToNetwork[2].channel disabled false
attr mutable ""
par NSFNet_Network_MAN.Node5.outToNetwork[2].channel delay 0.00114286s
attr mutable ""
attr unit s
par NSFNet_Network_MAN.Node5.outToNetwork[2].channel distance 240000m
attr unit m
par NSFNet_Network_MAN.Node5.outToNetwork[2].channel speedOfLightFactor 0.7
par NSFNet_Network_MAN.Node5.outToNetwork[3].channel typename "\"opticalFiber\""
par NSFNet_Network_MAN.Node5.outToNetwork[3].channel disabled false
attr mutable ""
par NSFNet_Network_MAN.Node5.outToNetwork[3].channel delay 4.7619e-08s
attr mutable ""
attr unit s
par NSFNet_Network_MAN.Node5.outToNetwork[3].channel distance 10m
attr unit m
par NSFNet_Network_MAN.Node5.outToNetwork[3].channel speedOfLightFactor 0.7
par NSFNet_Network_MAN.Host6.outHost.channel typename "\"opticalFiber\""
par NSFNet_Network_MAN.Host6.outHost.channel disabled false
attr mutable ""
par NSFNet_Network_MAN.Host6.outHost.channel delay 9.52381e-07s
attr mutable ""
attr unit s
par NSFNet_Network_MAN.Host6.outHost.channel distance 200m
attr unit m
par NSFNet_Network_MAN.Host6.outHost.channel speedOfLightFactor 0.7
par NSFNet_Network_MAN.Node6.outToHost.channel typename "\"opticalFiber\""
par NSFNet_Network_MAN.Node6.outToHost.channel disabled false
attr mutable ""
par NSFNet_Network_MAN.Node6.outToHost.channel delay 9.52381e-07s
attr mutable ""
attr unit s
par NSFNet_Network_MAN.Node6.outToHost.channel distance 200m
attr unit m
par NSFNet_Network_MAN.Node6.outToHost.channel speedOfLightFactor 0.7
par NSFNet_Network_MAN.Node6.outToController.channel typename "\"opticalFiberC\""
par NSFNet_Network_MAN.Node6.outToController.channel disabled false
attr mutable ""
par NSFNet_Network_MAN.Node6.outToController.channel delay 0.00171429s
attr mutable ""
attr unit s
par NSFNet_Network_MAN.Node6.outToController.channel distance 360000m
attr unit m
par NSFNet_Network_MAN.Node6.outToController.channel speedOfLightFactor 0.7
par NSFNet_Network_MAN.controller.outController[5].channel typename "\"opticalFiberC\""
par NSFNet_Network_MAN.controller.outController[5].channel disabled false
attr mutable ""
par NSFNet_Network_MAN.controller.outController[5].channel delay 0.00171429s
attr mutable ""
attr unit s
par NSFNet_Network_MAN.controller.outController[5].channel distance 360000m
attr unit m
par NSFNet_Network_MAN.controller.outController[5].channel speedOfLightFactor 0.7
par NSFNet_Network_MAN.Node6.outToNetwork[0].channel typename "\"opticalFiber\""
par NSFNet_Network_MAN.Node6.outToNetwork[0].channel disabled false
attr mutable ""
par NSFNet_Network_MAN.Node6.outToNetwork[0].channel delay 0.00171429s
attr mutable ""
attr unit s
par NSFNet_Network_MAN.Node6.outToNetwork[0].channel distance 360000m
attr unit m
par NSFNet_Network_MAN.Node6.outToNetwork[0].channel speedOfLightFactor 0.7
par NSFNet_Network_MAN.Node6.outToNetwork[1].channel typename "\"opticalFiber\""
par NSFNet_Network_MAN.Node6.outToNetwork[1].channel disabled false
attr mutable ""
par NSFNet_Network_MAN.Node6.outToNetwork[1].channel delay 0.001s
attr mutable ""
attr unit s
par NSFNet_Network_MAN.Node6.outToNetwork[1].channel distance 210000m
attr unit m
par NSFNet_Network_MAN.Node6.outToNetwork[1].channel speedOfLightFactor 0.7
par NSFNet_Network_MAN.Node6.outToNetwork[2].channel typename "\"opticalFiber\""
par NSFNet_Network_MAN.Node6.outToNetwork[2].channel disabled false
attr mutable ""
par NSFNet_Network_MAN.Node6.outToNetwork[2].channel delay 0.00114286s
attr mutable ""
attr unit s
par NSFNet_Network_MAN.Node6.outToNetwork[2].channel distance 240000m
attr unit m
par NSFNet_Network_MAN.Node6.outToNetwork[2].channel speedOfLightFactor 0.7
par NSFNet_Network_MAN.Node6.outToNetwork[3].channel typename "\"opticalFiber\""
par NSFNet_Network_MAN.Node6.outToNetwork[3].channel disabled false
attr mutable ""
par NSFNet_Network_MAN.Node6.outToNetwork[3].channel delay 0.00171429s
attr mutable ""
attr unit s
par NSFNet_Network_MAN.Node6.outToNetwork[3].channel distance 360000m
attr unit m
par NSFNet_Network_MAN.Node6.outToNetwork[3].channel speedOfLightFactor 0.7
par NSFNet_Network_MAN.Host7.outHost.channel typename "\"opticalFiber\""
par NSFNet_Network_MAN.Host7.outHost.channel disabled false
attr mutable ""
par NSFNet_Network_MAN.Host7.outHost.channel delay 9.52381e-07s
attr mutable ""
attr unit s
par NSFNet_Network_MAN.Host7.outHost.channel distance 200m
attr unit m
par NSFNet_Network_MAN.Host7.outHost.channel speedOfLightFactor 0.7
par NSFNet_Network_MAN.Node7.outToHost.channel typename "\"opticalFiber\""
par NSFNet_Network_MAN.Node7.outToHost.channel disabled false
attr mutable ""
par NSFNet_Network_MAN.Node7.outToHost.channel delay 9.52381e-07s
attr mutable ""
attr unit s
par NSFNet_Network_MAN.Node7.outToHost.channel distance 200m
attr unit m
par NSFNet_Network_MAN.Node7.outToHost.channel speedOfLightFactor 0.7
par NSFNet_Network_MAN.Node7.outToController.channel typename "\"opticalFiberC\""
par NSFNet_Network_MAN.Node7.outToController.channel disabled false
attr mutable ""
par NSFNet_Network_MAN.Node7.outToController.channel delay 4.7619e-08s
attr mutable ""
attr unit s
par NSFNet_Network_MAN.Node7.outToController.channel distance 10m
attr unit m
par NSFNet_Network_MAN.Node7.outToController.channel speedOfLightFactor 0.7
par NSFNet_Network_MAN.controller.outController[6].channel typename "\"opticalFiberC\""
par NSFNet_Network_MAN.controller.outController[6].channel disabled false
attr mutable ""
par NSFNet_Network_MAN.controller.outController[6].channel delay 4.7619e-08s
attr mutable ""
attr unit s
par NSFNet_Network_MAN.controller.outController[6].channel distance 10m
attr unit m
par NSFNet_Network_MAN.controller.outController[6].channel speedOfLightFactor 0.7
par NSFNet_Network_MAN.Node7.outToNetwork[0].channel typename "\"opticalFiber\""
par NSFNet_Network_MAN.Node7.outToNetwork[0].channel disabled false
attr mutable ""
par NSFNet_Network_MAN.Node7.outToNetwork[0].channel delay 0.000714286s
attr mutable ""
attr unit s
par NSFNet_Network_MAN.Node7.outToNetwork[0].channel distance 150000m
attr unit m
par NSFNet_Network_MAN.Node7.outToNetwork[0].channel speedOfLightFactor 0.7
par NSFNet_Network_MAN.Node7.outToNetwork[1].channel typename "\"opticalFiber\""
par NSFNet_Network_MAN.Node7.outToNetwork[1].channel disabled false
attr mutable ""
par NSFNet_Network_MAN.Node7.outToNetwork[1].channel delay 0.000571429s
attr mutable ""
attr unit s
par NSFNet_Network_MAN.Node7.outToNetwork[1].channel distance 120000m
attr unit m
par NSFNet_Network_MAN.Node7.outToNetwork[1].channel speedOfLightFactor 0.7
par NSFNet_Network_MAN.Node7.outToNetwork[2].channel typename "\"opticalFiber\""
par NSFNet_Network_MAN.Node7.outToNetwork[2].channel disabled false
attr mutable ""
par NSFNet_Network_MAN.Node7.outToNetwork[2].channel delay 4.7619e-08s
attr mutable ""
attr unit s
par NSFNet_Network_MAN.Node7.outToNetwork[2].channel distance 10m
attr unit m
par NSFNet_Network_MAN.Node7.outToNetwork[2].channel speedOfLightFactor 0.7
par NSFNet_Network_MAN.Node7.outToNetwork[3].channel typename "\"opticalFiber\""
par NSFNet_Network_MAN.Node7.outToNetwork[3].channel disabled false
attr mutable ""
par NSFNet_Network_MAN.Node7.outToNetwork[3].channel delay 4.7619e-08s
attr mutable ""
attr unit s
par NSFNet_Network_MAN.Node7.outToNetwork[3].channel distance 10m
attr unit m
par NSFNet_Network_MAN.Node7.outToNetwork[3].channel speedOfLightFactor 0.7
par NSFNet_Network_MAN.Host8.outHost.channel typename "\"opticalFiber\""
par NSFNet_Network_MAN.Host8.outHost.channel disabled false
attr mutable ""
par NSFNet_Network_MAN.Host8.outHost.channel delay 9.52381e-07s
attr mutable ""
attr unit s
par NSFNet_Network_MAN.Host8.outHost.channel distance 200m
attr unit m
par NSFNet_Network_MAN.Host8.outHost.channel speedOfLightFactor 0.7
par NSFNet_Network_MAN.Node8.outToHost.channel typename "\"opticalFiber\""
par NSFNet_Network_MAN.Node8.outToHost.channel disabled false
attr mutable ""
par NSFNet_Network_MAN.Node8.outToHost.channel delay 9.52381e-07s
attr mutable ""
attr unit s
par NSFNet_Network_MAN.Node8.outToHost.channel distance 200m
attr unit m
par NSFNet_Network_MAN.Node8.outToHost.channel speedOfLightFactor 0.7
par NSFNet_Network_MAN.Node8.outToController.channel typename "\"opticalFiberC\""
par NSFNet_Network_MAN.Node8.outToController.channel disabled false
attr mutable ""
par NSFNet_Network_MAN.Node8.outToController.channel delay 0.000714286s
attr mutable ""
attr unit s
par NSFNet_Network_MAN.Node8.outToController.channel distance 150000m
attr unit m
par NSFNet_Network_MAN.Node8.outToController.channel speedOfLightFactor 0.7
par NSFNet_Network_MAN.controller.outController[7].channel typename "\"opticalFiberC\""
par NSFNet_Network_MAN.controller.outController[7].channel disabled false
attr mutable ""
par NSFNet_Network_MAN.controller.outController[7].channel delay 0.000714286s
attr mutable ""
attr unit s
par NSFNet_Network_MAN.controller.outController[7].channel distance 150000m
attr unit m
par NSFNet_Network_MAN.controller.outController[7].channel speedOfLightFactor 0.7
par NSFNet_Network_MAN.Node8.outToNetwork[0].channel typename "\"opticalFiber\""
par NSFNet_Network_MAN.Node8.outToNetwork[0].channel disabled false
attr mutable ""
par NSFNet_Network_MAN.Node8.outToNetwork[0].channel delay 0.000714286s
attr mutable ""
attr unit s
par NSFNet_Network_MAN.Node8.outToNetwork[0].channel distance 150000m
attr unit m
par NSFNet_Network_MAN.Node8.outToNetwork[0].channel speedOfLightFactor 0.7
par NSFNet_Network_MAN.Node8.outToNetwork[1].channel typename "\"opticalFiber\""
par NSFNet_Network_MAN.Node8.outToNetwork[1].channel disabled false
attr mutable ""
par NSFNet_Network_MAN.Node8.outToNetwork[1].channel delay 0.000714286s
attr mutable ""
attr unit s
par NSFNet_Network_MAN.Node8.outToNetwork[1].channel distance 150000m
attr unit m
par NSFNet_Network_MAN.Node8.outToNetwork[1].channel speedOfLightFactor 0.7
par NSFNet_Network_MAN.Node8.outToNetwork[2].channel typename "\"opticalFiber\""
par NSFNet_Network_MAN.Node8.outToNetwork[2].channel disabled false
attr mutable ""
par NSFNet_Network_MAN.Node8.outToNetwork[2].channel delay 0.00228571s
attr mutable ""
attr unit s
par NSFNet_Network_MAN.Node8.outToNetwork[2].channel distance 480000m
attr unit m
par NSFNet_Network_MAN.Node8.outToNetwork[2].channel speedOfLightFactor 0.7
par NSFNet_Network_MAN.Node8.outToNetwork[3].channel typename "\"opticalFiber\""
par NSFNet_Network_MAN.Node8.outToNetwork[3].channel disabled false
attr mutable ""
par NSFNet_Network_MAN.Node8.outToNetwork[3].channel delay 4.7619e-08s
attr mutable ""
attr unit s
par NSFNet_Network_MAN.Node8.outToNetwork[3].channel distance 10m
attr unit m
par NSFNet_Network_MAN.Node8.outToNetwork[3].channel speedOfLightFactor 0.7
par NSFNet_Network_MAN.Host9.outHost.channel typename "\"opticalFiber\""
par NSFNet_Network_MAN.Host9.outHost.channel disabled false
attr mutable ""
par NSFNet_Network_MAN.Host9.outHost.channel delay 9.52381e-07s
attr mutable ""
attr unit s
par NSFNet_Network_MAN.Host9.outHost.channel distance 200m
attr unit m
par NSFNet_Network_MAN.Host9.outHost.channel speedOfLightFactor 0.7
par NSFNet_Network_MAN.Node9.outToHost.channel typename "\"opticalFiber\""
par NSFNet_Network_MAN.Node9.outToHost.channel disabled false
attr mutable ""
par NSFNet_Network_MAN.Node9.outToHost.channel delay 9.52381e-07s
attr mutable ""
attr unit s
par NSFNet_Network_MAN.Node9.outToHost.channel distance 200m
attr unit m
par NSFNet_Network_MAN.Node9.outToHost.channel speedOfLightFactor 0.7
par NSFNet_Network_MAN.Node9.outToController.channel typename "\"opticalFiberC\""
par NSFNet_Network_MAN.Node9.outToController.channel disabled false
attr mutable ""
par NSFNet_Network_MAN.Node9.outToController.channel delay 0.00142857s
attr mutable ""
attr unit s
par NSFNet_Network_MAN.Node9.outToController.channel distance 300000m
attr unit m
par NSFNet_Network_MAN.Node9.outToController.channel speedOfLightFactor 0.7
par NSFNet_Network_MAN.controller.outController[8].channel typename "\"opticalFiberC\""
par NSFNet_Network_MAN.controller.outController[8].channel disabled false
attr mutable ""
par NSFNet_Network_MAN.controller.outController[8].channel delay 0.00142857s
attr mutable ""
attr unit s
par NSFNet_Network_MAN.controller.outController[8].channel distance 300000m
attr unit m
par NSFNet_Network_MAN.controller.outController[8].channel speedOfLightFactor 0.7
par NSFNet_Network_MAN.Node9.outToNetwork[0].channel typename "\"opticalFiber\""
par NSFNet_Network_MAN.Node9.outToNetwork[0].channel disabled false
attr mutable ""
par NSFNet_Network_MAN.Node9.outToNetwork[0].channel delay 0.000714286s
attr mutable ""
attr unit s
par NSFNet_Network_MAN.Node9.outToNetwork[0].channel distance 150000m
attr unit m
par NSFNet_Network_MAN.Node9.outToNetwork[0].channel speedOfLightFactor 0.7
par NSFNet_Network_MAN.Node9.outToNetwork[1].channel typename "\"opticalFiber\""
par NSFNet_Network_MAN.Node9.outToNetwork[1].channel disabled false
attr mutable ""
par NSFNet_Network_MAN.Node9.outToNetwork[1].channel delay 0.000714286s
attr mutable ""
attr unit s
par NSFNet_Network_MAN.Node9.outToNetwork[1].channel distance 150000m
attr unit m
par NSFNet_Network_MAN.Node9.outToNetwork[1].channel speedOfLightFactor 0.7
par NSFNet_Network_MAN.Node9.outToNetwork[2].channel typename "\"opticalFiber\""
par NSFNet_Network_MAN.Node9.outToNetwork[2].channel disabled false
attr mutable ""
par NSFNet_Network_MAN.Node9.outToNetwork[2].channel delay 0.000285714s
attr mutable ""
attr unit s
par NSFNet_Network_MAN.Node9.outToNetwork[2].channel distance 60000m
attr unit m
par NSFNet_Network_MAN.Node9.outToNetwork[2].channel speedOfLightFactor 0.7
par NSFNet_Network_MAN.Node9.outToNetwork[3].channel typename "\"opticalFiber\""
par NSFNet_Network_MAN.Node9.outToNetwork[3].channel disabled false
attr mutable ""
par NSFNet_Network_MAN.Node9.outToNetwork[3].channel delay 0.000285714s
attr mutable ""
attr unit s
par NSFNet_Network_MAN.Node9.outToNetwork[3].channel distance 60000m
attr unit m
par NSFNet_Network_MAN.Node9.outToNetwork[3].channel speedOfLightFactor 0.7
par NSFNet_Network_MAN.Host10.outHost.channel typename "\"opticalFiber\""
par NSFNet_Network_MAN.Host10.outHost.channel disabled false
attr mutable ""
par NSFNet_Network_MAN.Host10.outHost.channel delay 9.52381e-07s
attr mutable ""
attr unit s
par NSFNet_Network_MAN.Host10.outHost.channel distance 200m
attr unit m
par NSFNet_Network_MAN.Host10.outHost.channel speedOfLightFactor 0.7
par NSFNet_Network_MAN.Node10.outToHost.channel typename "\"opticalFiber\""
par NSFNet_Network_MAN.Node10.outToHost.channel disabled false
attr mutable ""
par NSFNet_Network_MAN.Node10.outToHost.channel delay 9.52381e-07s
attr mutable ""
attr unit s
par NSFNet_Network_MAN.Node10.outToHost.channel distance 200m
attr unit m
par NSFNet_Network_MAN.Node10.outToHost.channel speedOfLightFactor 0.7
par NSFNet_Network_MAN.Node10.outToController.channel typename "\"opticalFiberC\""
par NSFNet_Network_MAN.Node10.outToController.channel disabled false
attr mutable ""
par NSFNet_Network_MAN.Node10.outToController.channel delay 0.00214286s
attr mutable ""
attr unit s
par NSFNet_Network_MAN.Node10.outToController.channel distance 450000m
attr unit m
par NSFNet_Network_MAN.Node10.outToController.channel speedOfLightFactor 0.7
par NSFNet_Network_MAN.controller.outController[9].channel typename "\"opticalFiberC\""
par NSFNet_Network_MAN.controller.outController[9].channel disabled false
attr mutable ""
par NSFNet_Network_MAN.controller.outController[9].channel delay 0.00214286s
attr mutable ""
attr unit s
par NSFNet_Network_MAN.controller.outController[9].channel distance 450000m
attr unit m
par NSFNet_Network_MAN.controller.outController[9].channel speedOfLightFactor 0.7
par NSFNet_Network_MAN.Node10.outToNetwork[0].channel typename "\"opticalFiber\""
par NSFNet_Network_MAN.Node10.outToNetwork[0].channel disabled false
attr mutable ""
par NSFNet_Network_MAN.Node10.outToNetwork[0].channel delay 0.000714286s
attr mutable ""
attr unit s
par NSFNet_Network_MAN.Node10.outToNetwork[0].channel distance 150000m
attr unit m
par NSFNet_Network_MAN.Node10.outToNetwork[0].channel speedOfLightFactor 0.7
par NSFNet_Network_MAN.Node10.outToNetwork[1].channel typename "\"opticalFiber\""
par NSFNet_Network_MAN.Node10.outToNetwork[1].channel disabled false
attr mutable ""
par NSFNet_Network_MAN.Node10.outToNetwork[1].channel delay 0.001s
attr mutable ""
attr unit s
par NSFNet_Network_MAN.Node10.outToNetwork[1].channel distance 210000m
attr unit m
par NSFNet_Network_MAN.Node10.outToNetwork[1].channel speedOfLightFactor 0.7
par NSFNet_Network_MAN.Node10.outToNetwork[2].channel typename "\"opticalFiber\""
par NSFNet_Network_MAN.Node10.outToNetwork[2].channel disabled false
attr mutable ""
par NSFNet_Network_MAN.Node10.outToNetwork[2].channel delay 4.7619e-08s
attr mutable ""
attr unit s
par NSFNet_Network_MAN.Node10.outToNetwork[2].channel distance 10m
attr unit m
par NSFNet_Network_MAN.Node10.outToNetwork[2].channel speedOfLightFactor 0.7
par NSFNet_Network_MAN.Node10.outToNetwork[3].channel typename "\"opticalFiber\""
par NSFNet_Network_MAN.Node10.outToNetwork[3].channel disabled false
attr mutable ""
par NSFNet_Network_MAN.Node10.outToNetwork[3].channel delay 4.7619e-08s
attr mutable ""
attr unit s
par NSFNet_Network_MAN.Node10.outToNetwork[3].channel distance 10m
attr unit m
par NSFNet_Network_MAN.Node10.outToNetwork[3].channel speedOfLightFactor 0.7
par NSFNet_Network_MAN.Host11.outHost.channel typename "\"opticalFiber\""
par NSFNet_Network_MAN.Host11.outHost.channel disabled false
attr mutable ""
par NSFNet_Network_MAN.Host11.outHost.channel delay 9.52381e-07s
attr mutable ""
attr unit s
par NSFNet_Network_MAN.Host11.outHost.channel distance 200m
attr unit m
par NSFNet_Network_MAN.Host11.outHost.channel speedOfLightFactor 0.7
par NSFNet_Network_MAN.Node11.outToHost.channel typename "\"opticalFiber\""
par NSFNet_Network_MAN.Node11.outToHost.channel disabled false
attr mutable ""
par NSFNet_Network_MAN.Node11.outToHost.channel delay 9.52381e-07s
attr mutable ""
attr unit s
par NSFNet_Network_MAN.Node11.outToHost.channel distance 200m
attr unit m
par NSFNet_Network_MAN.Node11.outToHost.channel speedOfLightFactor 0.7
par NSFNet_Network_MAN.Node11.outToController.channel typename "\"opticalFiberC\""
par NSFNet_Network_MAN.Node11.outToController.channel disabled false
attr mutable ""
par NSFNet_Network_MAN.Node11.outToController.channel delay 0.00228571s
attr mutable ""
attr unit s
par NSFNet_Network_MAN.Node11.outToController.channel distance 480000m
attr unit m
par NSFNet_Network_MAN.Node11.outToController.channel speedOfLightFactor 0.7
par NSFNet_Network_MAN.controller.outController[10].channel typename "\"opticalFiberC\""
par NSFNet_Network_MAN.controller.outController[10].channel disabled false
attr mutable ""
par NSFNet_Network_MAN.controller.outController[10].channel delay 0.00228571s
attr mutable ""
attr unit s
par NSFNet_Network_MAN.controller.outController[10].channel distance 480000m
attr unit m
par NSFNet_Network_MAN.controller.outController[10].channel speedOfLightFactor 0.7
par NSFNet_Network_MAN.Node11.outToNetwork[0].channel typename "\"opticalFiber\""
par NSFNet_Network_MAN.Node11.outToNetwork[0].channel disabled false
attr mutable ""
par NSFNet_Network_MAN.Node11.outToNetwork[0].channel delay 0.000571429s
attr mutable ""
attr unit s
par NSFNet_Network_MAN.Node11.outToNetwork[0].channel distance 120000m
attr unit m
par NSFNet_Network_MAN.Node11.outToNetwork[0].channel speedOfLightFactor 0.7
par NSFNet_Network_MAN.Node11.outToNetwork[1].channel typename "\"opticalFiber\""
par NSFNet_Network_MAN.Node11.outToNetwork[1].channel disabled false
attr mutable ""
par NSFNet_Network_MAN.Node11.outToNetwork[1].channel delay 0.000714286s
attr mutable ""
attr unit s
par NSFNet_Network_MAN.Node11.outToNetwork[1].channel distance 150000m
attr unit m
par NSFNet_Network_MAN.Node11.outToNetwork[1].channel speedOfLightFactor 0.7
par NSFNet_Network_MAN.Node11.outToNetwork[2].channel typename "\"opticalFiber\""
par NSFNet_Network_MAN.Node11.outToNetwork[2].channel disabled false
attr mutable ""
par NSFNet_Network_MAN.Node11.outToNetwork[2].channel delay 0.00185714s
attr mutable ""
attr unit s
par NSFNet_Network_MAN.Node11.outToNetwork[2].channel distance 390000m
attr unit m
par NSFNet_Network_MAN.Node11.outToNetwork[2].channel speedOfLightFactor 0.7
par NSFNet_Network_MAN.Node11.outToNetwork[3].channel typename "\"opticalFiber\""
par NSFNet_Network_MAN.Node11.outToNetwork[3].channel disabled false
attr mutable ""
par NSFNet_Network_MAN.Node11.outToNetwork[3].channel delay 4.7619e-08s
attr mutable ""
attr unit s
par NSFNet_Network_MAN.Node11.outToNetwork[3].channel distance 10m
attr unit m
par NSFNet_Network_MAN.Node11.outToNetwork[3].channel speedOfLightFactor 0.7
par NSFNet_Network_MAN.Host12.outHost.channel typename "\"opticalFiber\""
par NSFNet_Network_MAN.Host12.outHost.channel disabled false
attr mutable ""
par NSFNet_Network_MAN.Host12.outHost.channel delay 9.52381e-07s
attr mutable ""
attr unit s
par NSFNet_Network_MAN.Host12.outHost.channel distance 200m
attr unit m
par NSFNet_Network_MAN.Host12.outHost.channel speedOfLightFactor 0.7
par NSFNet_Network_MAN.Node12.outToHost.channel typename "\"opticalFiber\""
par NSFNet_Network_MAN.Node12.outToHost.channel disabled false
attr mutable ""
par NSFNet_Network_MAN.Node12.outToHost.channel delay 9.52381e-07s
attr mutable ""
attr unit s
par NSFNet_Network_MAN.Node12.outToHost.channel distance 200m
attr unit m
par NSFNet_Network_MAN.Node12.outToHost.channel speedOfLightFactor 0.7
par NSFNet_Network_MAN.Node12.outToController.channel typename "\"opticalFiberC\""
par NSFNet_Network_MAN.Node12.outToController.channel disabled false
attr mutable ""
par NSFNet_Network_MAN.Node12.outToController.channel delay 0.00171429s
attr mutable ""
attr unit s
par NSFNet_Network_MAN.Node12.outToController.channel distance 360000m
attr unit m
par NSFNet_Network_MAN.Node12.outToController.channel speedOfLightFactor 0.7
par NSFNet_Network_MAN.controller.outController[11].channel typename "\"opticalFiberC\""
par NSFNet_Network_MAN.controller.outController[11].channel disabled false
attr mutable ""
par NSFNet_Network_MAN.controller.outController[11].channel delay 0.00171429s
attr mutable ""
attr unit s
par NSFNet_Network_MAN.controller.outController[11].channel distance 360000m
attr unit m
par NSFNet_Network_MAN.controller.outController[11].channel speedOfLightFactor 0.7
par NSFNet_Network_MAN.Node12.outToNetwork[0].channel typename "\"opticalFiber\""
par NSFNet_Network_MAN.Node12.outToNetwork[0].channel disabled false
attr mutable ""
par NSFNet_Network_MAN.Node12.outToNetwork[0].channel delay 0.000571429s
attr mutable ""
attr unit s
par NSFNet_Network_MAN.Node12.outToNetwork[0].channel distance 120000m
attr unit m
par NSFNet_Network_MAN.Node12.outToNetwork[0].channel speedOfLightFactor 0.7
par NSFNet_Network_MAN.Node12.outToNetwork[1].channel typename "\"opticalFiber\""
par NSFNet_Network_MAN.Node12.outToNetwork[1].channel disabled false
attr mutable ""
par NSFNet_Network_MAN.Node12.outToNetwork[1].channel delay 0.000285714s
attr mutable ""
attr unit s
par NSFNet_Network_MAN.Node12.outToNetwork[1].channel distance 60000m
attr unit m
par NSFNet_Network_MAN.Node12.outToNetwork[1].channel speedOfLightFactor 0.7
par NSFNet_Network_MAN.Node12.outToNetwork[2].channel typename "\"opticalFiber\""
par NSFNet_Network_MAN.Node12.outToNetwork[2].channel disabled false
attr mutable ""
par NSFNet_Network_MAN.Node12.outToNetwork[2].channel delay 0.000285714s
attr mutable ""
attr unit s
par NSFNet_Network_MAN.Node12.outToNetwork[2].channel distance 60000m
attr unit m
par NSFNet_Network_MAN.Node12.outToNetwork[2].channel speedOfLightFactor 0.7
par NSFNet_Network_MAN.Node12.outToNetwork[3].channel typename "\"opticalFiber\""
par NSFNet_Network_MAN.Node12.outToNetwork[3].channel disabled false
attr mutable ""
par NSFNet_Network_MAN.Node12.outToNetwork[3].channel delay 4.7619e-08s
attr mutable ""
attr unit s
par NSFNet_Network_MAN.Node12.outToNetwork[3].channel distance 10m
attr unit m
par NSFNet_Network_MAN.Node12.outToNetwork[3].channel speedOfLightFactor 0.7
par NSFNet_Network_MAN.Host13.outHost.channel typename "\"opticalFiber\""
par NSFNet_Network_MAN.Host13.outHost.channel disabled false
attr mutable ""
par NSFNet_Network_MAN.Host13.outHost.channel delay 9.52381e-07s
attr mutable ""
attr unit s
par NSFNet_Network_MAN.Host13.outHost.channel distance 200m
attr unit m
par NSFNet_Network_MAN.Host13.outHost.channel speedOfLightFactor 0.7
par NSFNet_Network_MAN.Node13.outToHost.channel typename "\"opticalFiber\""
par NSFNet_Network_MAN.Node13.outToHost.channel disabled false
attr mutable ""
par NSFNet_Network_MAN.Node13.outToHost.channel delay 9.52381e-07s
attr mutable ""
attr unit s
par NSFNet_Network_MAN.Node13.outToHost.channel distance 200m
attr unit m
par NSFNet_Network_MAN.Node13.outToHost.channel speedOfLightFactor 0.7
par NSFNet_Network_MAN.Node13.outToController.channel typename "\"opticalFiberC\""
par NSFNet_Network_MAN.Node13.outToController.channel disabled false
attr mutable ""
par NSFNet_Network_MAN.Node13.outToController.channel delay 0.00171429s
attr mutable ""
attr unit s
par NSFNet_Network_MAN.Node13.outToController.channel distance 360000m
attr unit m
par NSFNet_Network_MAN.Node13.outToController.channel speedOfLightFactor 0.7
par NSFNet_Network_MAN.controller.outController[12].channel typename "\"opticalFiberC\""
par NSFNet_Network_MAN.controller.outController[12].channel disabled false
attr mutable ""
par NSFNet_Network_MAN.controller.outController[12].channel delay 0.00171429s
attr mutable ""
attr unit s
par NSFNet_Network_MAN.controller.outController[12].channel distance 360000m
attr unit m
par NSFNet_Network_MAN.controller.outController[12].channel speedOfLightFactor 0.7
par NSFNet_Network_MAN.Node13.outToNetwork[0].channel typename "\"opticalFiber\""
par NSFNet_Network_MAN.Node13.outToNetwork[0].channel disabled false
attr mutable ""
par NSFNet_Network_MAN.Node13.outToNetwork[0].channel delay 4.7619e-07s
attr mutable ""
attr unit s
par NSFNet_Network_MAN.Node13.outToNetwork[0].channel distance 100m
attr unit m
par NSFNet_Network_MAN.Node13.outToNetwork[0].channel speedOfLightFactor 0.7
par NSFNet_Network_MAN.Node13.outToNetwork[1].channel typename "\"opticalFiber\""
par NSFNet_Network_MAN.Node13.outToNetwork[1].channel disabled false
attr mutable ""
par NSFNet_Network_MAN.Node13.outToNetwork[1].channel delay 0.000714286s
attr mutable ""
attr unit s
par NSFNet_Network_MAN.Node13.outToNetwork[1].channel distance 150000m
attr unit m
par NSFNet_Network_MAN.Node13.outToNetwork[1].channel speedOfLightFactor 0.7
par NSFNet_Network_MAN.Node13.outToNetwork[2].channel typename "\"opticalFiber\""
par NSFNet_Network_MAN.Node13.outToNetwork[2].channel disabled false
attr mutable ""
par NSFNet_Network_MAN.Node13.outToNetwork[2].channel delay 0.000142857s
attr mutable ""
attr unit s
par NSFNet_Network_MAN.Node13.outToNetwork[2].channel distance 30000m
attr unit m
par NSFNet_Network_MAN.Node13.outToNetwork[2].channel speedOfLightFactor 0.7
par NSFNet_Network_MAN.Node13.outToNetwork[3].channel typename "\"opticalFiber\""
par NSFNet_Network_MAN.Node13.outToNetwork[3].channel disabled false
attr mutable ""
par NSFNet_Network_MAN.Node13.outToNetwork[3].channel delay 0.000285714s
attr mutable ""
attr unit s
par NSFNet_Network_MAN.Node13.outToNetwork[3].channel distance 60000m
attr unit m
par NSFNet_Network_MAN.Node13.outToNetwork[3].channel speedOfLightFactor 0.7
par NSFNet_Network_MAN.Host14.outHost.channel typename "\"opticalFiber\""
par NSFNet_Network_MAN.Host14.outHost.channel disabled false
attr mutable ""
par NSFNet_Network_MAN.Host14.outHost.channel delay 9.52381e-07s
attr mutable ""
attr unit s
par NSFNet_Network_MAN.Host14.outHost.channel distance 200m
attr unit m
par NSFNet_Network_MAN.Host14.outHost.channel speedOfLightFactor 0.7
par NSFNet_Network_MAN.Node14.outToHost.channel typename "\"opticalFiber\""
par NSFNet_Network_MAN.Node14.outToHost.channel disabled false
attr mutable ""
par NSFNet_Network_MAN.Node14.outToHost.channel delay 9.52381e-07s
attr mutable ""
attr unit s
par NSFNet_Network_MAN.Node14.outToHost.channel distance 200m
attr unit m
par NSFNet_Network_MAN.Node14.outToHost.channel speedOfLightFactor 0.7
par NSFNet_Network_MAN.Node14.outToController.channel typename "\"opticalFiberC\""
par NSFNet_Network_MAN.Node14.outToController.channel disabled false
attr mutable ""
par NSFNet_Network_MAN.Node14.outToController.channel delay 0.00185714s
attr mutable ""
attr unit s
par NSFNet_Network_MAN.Node14.outToController.channel distance 390000m
attr unit m
par NSFNet_Network_MAN.Node14.outToController.channel speedOfLightFactor 0.7
par NSFNet_Network_MAN.controller.outController[13].channel typename "\"opticalFiberC\""
par NSFNet_Network_MAN.controller.outController[13].channel disabled false
attr mutable ""
par NSFNet_Network_MAN.controller.outController[13].channel delay 0.00185714s
attr mutable ""
attr unit s
par NSFNet_Network_MAN.controller.outController[13].channel distance 390000m
attr unit m
par NSFNet_Network_MAN.controller.outController[13].channel speedOfLightFactor 0.7
par NSFNet_Network_MAN.Node14.outToNetwork[0].channel typename "\"opticalFiber\""
par NSFNet_Network_MAN.Node14.outToNetwork[0].channel disabled false
attr mutable ""
par NSFNet_Network_MAN.Node14.outToNetwork[0].channel delay 4.7619e-07s
attr mutable ""
attr unit s
par NSFNet_Network_MAN.Node14.outToNetwork[0].channel distance 100m
attr unit m
par NSFNet_Network_MAN.Node14.outToNetwork[0].channel speedOfLightFactor 0.7
par NSFNet_Network_MAN.Node14.outToNetwork[1].channel typename "\"opticalFiber\""
par NSFNet_Network_MAN.Node14.outToNetwork[1].channel disabled false
attr mutable ""
par NSFNet_Network_MAN.Node14.outToNetwork[1].channel delay 0.000285714s
attr mutable ""
attr unit s
par NSFNet_Network_MAN.Node14.outToNetwork[1].channel distance 60000m
attr unit m
par NSFNet_Network_MAN.Node14.outToNetwork[1].channel speedOfLightFactor 0.7
par NSFNet_Network_MAN.Node14.outToNetwork[2].channel typename "\"opticalFiber\""
par NSFNet_Network_MAN.Node14.outToNetwork[2].channel disabled false
attr mutable ""
par NSFNet_Network_MAN.Node14.outToNetwork[2].channel delay 0.000142857s
attr mutable ""
attr unit s
par NSFNet_Network_MAN.Node14.outToNetwork[2].channel distance 30000m
attr unit m
par NSFNet_Network_MAN.Node14.outToNetwork[2].channel speedOfLightFactor 0.7
par NSFNet_Network_MAN.Node14.outToNetwork[3].channel typename "\"opticalFiber\""
par NSFNet_Network_MAN.Node14.outToNetwork[3].channel disabled false
attr mutable ""
par NSFNet_Network_MAN.Node14.outToNetwork[3].channel delay 0.00171429s
attr mutable ""
attr unit s
par NSFNet_Network_MAN.Node14.outToNetwork[3].channel distance 360000m
attr unit m
par NSFNet_Network_MAN.Node14.outToNetwork[3].channel speedOfLightFactor 0.7
par NSFNet_Network_MAN.Node1.inFromHost.channel typename "\"ned.IdealChannel\""
par NSFNet_Network_MAN.Node1.edge_Node.outToHost.channel typename "\"ned.IdealChannel\""
par NSFNet_Network_MAN.Node1.edge_Node.outToCoreControlUnit.channel typename "\"ned.IdealChannel\""
par NSFNet_Network_MAN.Node1.core_Node.outToEdgeSender.channel typename "\"ned.IdealChannel\""
par NSFNet_Network_MAN.Node1.core_Node.outToController.channel typename "\"ned.IdealChannel\""
par NSFNet_Network_MAN.Node1.inFromController.channel typename "\"ned.IdealChannel\""
par NSFNet_Network_MAN.Node1.edge_Node.outAssembler.channel typename "\"ned.IdealChannel\""
par NSFNet_Network_MAN.Node1.core_Node.outTraffic[0].channel typename "\"ned.IdealChannel\""
par NSFNet_Network_MAN.Node1.core_Node.outTraffic[1].channel typename "\"ned.IdealChannel\""
par NSFNet_Network_MAN.Node1.core_Node.outTraffic[2].channel typename "\"ned.IdealChannel\""
par NSFNet_Network_MAN.Node1.core_Node.outTraffic[3].channel typename "\"ned.IdealChannel\""
par NSFNet_Network_MAN.Node1.core_Node.outTraffic[4].channel typename "\"ned.IdealChannel\""
par NSFNet_Network_MAN.Node1.inFromNetwork[0].channel typename "\"ned.IdealChannel\""
par NSFNet_Network_MAN.Node1.inFromNetwork[1].channel typename "\"ned.IdealChannel\""
par NSFNet_Network_MAN.Node1.inFromNetwork[2].channel typename "\"ned.IdealChannel\""
par NSFNet_Network_MAN.Node1.inFromNetwork[3].channel typename "\"ned.IdealChannel\""
par NSFNet_Network_MAN.Node1.core_Node.inFromController.channel typename "\"ned.IdealChannel\""
par NSFNet_Network_MAN.Node1.core_Node.outOEO.outOEO.channel typename "\"ned.IdealChannel\""
par NSFNet_Network_MAN.Node1.core_Node.inOEO.outOEO.channel typename "\"ned.IdealChannel\""
par NSFNet_Network_MAN.Node1.core_Node.core_CU.outToController.channel typename "\"ned.IdealChannel\""
par NSFNet_Network_MAN.Node1.core_Node.inFromEdgeSender.channel typename "\"ned.IdealChannel\""
par NSFNet_Network_MAN.Node1.core_Node.core_CU.outToEdgeSender.channel typename "\"ned.IdealChannel\""
par NSFNet_Network_MAN.Node1.core_Node.core_CU.outToSwitch.channel typename "\"ned.IdealChannel\""
par NSFNet_Network_MAN.Node1.core_Node.optical_Switch.outToCU.channel typename "\"ned.IdealChannel\""
par NSFNet_Network_MAN.Node1.core_Node.inTraffic[0].channel typename "\"ned.IdealChannel\""
par NSFNet_Network_MAN.Node1.core_Node.optical_Switch.outTraffic[0].channel typename "\"ned.IdealChannel\""
par NSFNet_Network_MAN.Node1.core_Node.inTraffic[1].channel typename "\"ned.IdealChannel\""
par NSFNet_Network_MAN.Node1.core_Node.inTraffic[2].channel typename "\"ned.IdealChannel\""
par NSFNet_Network_MAN.Node1.core_Node.inTraffic[3].channel typename "\"ned.IdealChannel\""
par NSFNet_Network_MAN.Node1.core_Node.inTraffic[4].channel typename "\"ned.IdealChannel\""
par NSFNet_Network_MAN.Node1.core_Node.optical_Switch.outTraffic[1].channel typename "\"ned.IdealChannel\""
par NSFNet_Network_MAN.Node1.core_Node.optical_Switch.outTraffic[2].channel typename "\"ned.IdealChannel\""
par NSFNet_Network_MAN.Node1.core_Node.optical_Switch.outTraffic[3].channel typename "\"ned.IdealChannel\""
par NSFNet_Network_MAN.Node1.core_Node.optical_Switch.outTraffic[4].channel typename "\"ned.IdealChannel\""
par NSFNet_Network_MAN.Node1.core_Node.optical_Switch typename "\"Optical_Switch\""
par NSFNet_Network_MAN.Node1.core_Node.optical_Switch numWavelengths 1500
par NSFNet_Network_MAN.Node1.core_Node.optical_Switch processDelay 5e-06
par NSFNet_Network_MAN.Node1.core_Node.optical_Switch lossProbability 0
par NSFNet_Network_MAN.Node1.core_Node.optical_Switch lossDelay 0.01
par NSFNet_Network_MAN.Node1.core_Node.core_CU typename "\"Core_CU\""
par NSFNet_Network_MAN.Node1.core_Node.core_CU processDelay 1e-05
par NSFNet_Network_MAN.Node1.core_Node.inOEO typename "\"OEO_Conversor\""
par NSFNet_Network_MAN.Node1.core_Node.inOEO processDelay 1e-06
par NSFNet_Network_MAN.Node1.core_Node.outOEO typename "\"OEO_Conversor\""
par NSFNet_Network_MAN.Node1.core_Node.outOEO processDelay 1e-06
par NSFNet_Network_MAN.Node1.core_Node typename "\"Core_Node\""
par NSFNet_Network_MAN.Node1.edge_Node.inFromHost.channel typename "\"ned.IdealChannel\""
par NSFNet_Network_MAN.Node1.edge_Node.disassembler.outDisassembler.channel typename "\"ned.IdealChannel\""
par NSFNet_Network_MAN.Node1.edge_Node.inFromCoreControlUnit.channel typename "\"ned.IdealChannel\""
par NSFNet_Network_MAN.Node1.edge_Node.inToDisassembler.channel typename "\"ned.IdealChannel\""
par NSFNet_Network_MAN.Node1.edge_Node.assembler.outAssembler.channel typename "\"ned.IdealChannel\""
par NSFNet_Network_MAN.Node1.edge_Node.assembler.outToControlUnit.channel typename "\"ned.IdealChannel\""
par NSFNet_Network_MAN.Node1.edge_Node.disassembler.outToAssembler.channel typename "\"ned.IdealChannel\""
par NSFNet_Network_MAN.Node1.edge_Node.assembler.inAssembler.channel typename "\"ned.IdealChannel\""
par NSFNet_Network_MAN.Node1.edge_Node.assembler.Destination_Classifier.outClassifier[0].channel typename "\"ned.IdealChannel\""
par NSFNet_Network_MAN.Node1.edge_Node.assembler.Destination_Classifier.outClassifier[1].channel typename "\"ned.IdealChannel\""
par NSFNet_Network_MAN.Node1.edge_Node.assembler.Destination_Classifier.outClassifier[2].channel typename "\"ned.IdealChannel\""
par NSFNet_Network_MAN.Node1.edge_Node.assembler.Destination_Classifier.outClassifier[3].channel typename "\"ned.IdealChannel\""
par NSFNet_Network_MAN.Node1.edge_Node.assembler.Destination_Classifier.outClassifier[4].channel typename "\"ned.IdealChannel\""
par NSFNet_Network_MAN.Node1.edge_Node.assembler.Destination_Classifier.outClassifier[5].channel typename "\"ned.IdealChannel\""
par NSFNet_Network_MAN.Node1.edge_Node.assembler.Destination_Classifier.outClassifier[6].channel typename "\"ned.IdealChannel\""
par NSFNet_Network_MAN.Node1.edge_Node.assembler.Destination_Classifier.outClassifier[7].channel typename "\"ned.IdealChannel\""
par NSFNet_Network_MAN.Node1.edge_Node.assembler.Destination_Classifier.outClassifier[8].channel typename "\"ned.IdealChannel\""
par NSFNet_Network_MAN.Node1.edge_Node.assembler.Destination_Classifier.outClassifier[9].channel typename "\"ned.IdealChannel\""
par NSFNet_Network_MAN.Node1.edge_Node.assembler.Destination_Classifier.outClassifier[10].channel typename "\"ned.IdealChannel\""
par NSFNet_Network_MAN.Node1.edge_Node.assembler.Destination_Classifier.outClassifier[11].channel typename "\"ned.IdealChannel\""
par NSFNet_Network_MAN.Node1.edge_Node.assembler.Destination_Classifier.outClassifier[12].channel typename "\"ned.IdealChannel\""
par NSFNet_Network_MAN.Node1.edge_Node.assembler.Destination_Classifier.outClassifier[13].channel typename "\"ned.IdealChannel\""
par NSFNet_Network_MAN.Node1.edge_Node.assembler.Burst_Conformer.outConformer.channel typename "\"ned.IdealChannel\""
par NSFNet_Network_MAN.Node1.edge_Node.assembler.sender.outSender.channel typename "\"ned.IdealChannel\""
par NSFNet_Network_MAN.Node1.edge_Node.assembler.inFromControlUnit.channel typename "\"ned.IdealChannel\""
par NSFNet_Network_MAN.Node1.edge_Node.assembler.sender.outToControlUnit.channel typename "\"ned.IdealChannel\""
par NSFNet_Network_MAN.Node1.edge_Node.assembler.inFromDeconformer.channel typename "\"ned.IdealChannel\""
par NSFNet_Network_MAN.Node1.edge_Node.assembler.Destination_Classifier typename "\"Classifier\""
par NSFNet_Network_MAN.Node1.edge_Node.assembler.Destination_Classifier processDelay 3e-06
par NSFNet_Network_MAN.Node1.edge_Node.assembler.Burst_Conformer.inConformer[0].channel typename "\"ned.IdealChannel\""
par NSFNet_Network_MAN.Node1.edge_Node.assembler.Burst_Conformer.inConformer[1].channel typename "\"ned.IdealChannel\""
par NSFNet_Network_MAN.Node1.edge_Node.assembler.Burst_Conformer.inConformer[2].channel typename "\"ned.IdealChannel\""
par NSFNet_Network_MAN.Node1.edge_Node.assembler.Burst_Conformer.inConformer[3].channel typename "\"ned.IdealChannel\""
par NSFNet_Network_MAN.Node1.edge_Node.assembler.Burst_Conformer.inConformer[4].channel typename "\"ned.IdealChannel\""
par NSFNet_Network_MAN.Node1.edge_Node.assembler.Burst_Conformer.inConformer[5].channel typename "\"ned.IdealChannel\""
par NSFNet_Network_MAN.Node1.edge_Node.assembler.Burst_Conformer.inConformer[6].channel typename "\"ned.IdealChannel\""
par NSFNet_Network_MAN.Node1.edge_Node.assembler.Burst_Conformer.inConformer[7].channel typename "\"ned.IdealChannel\""
par NSFNet_Network_MAN.Node1.edge_Node.assembler.Burst_Conformer.inConformer[8].channel typename "\"ned.IdealChannel\""
par NSFNet_Network_MAN.Node1.edge_Node.assembler.Burst_Conformer.inConformer[9].channel typename "\"ned.IdealChannel\""
par NSFNet_Network_MAN.Node1.edge_Node.assembler.Burst_Conformer.inConformer[10].channel typename "\"ned.IdealChannel\""
par NSFNet_Network_MAN.Node1.edge_Node.assembler.Burst_Conformer.inConformer[11].channel typename "\"ned.IdealChannel\""
par NSFNet_Network_MAN.Node1.edge_Node.assembler.Burst_Conformer.inConformer[12].channel typename "\"ned.IdealChannel\""
par NSFNet_Network_MAN.Node1.edge_Node.assembler.Burst_Conformer.inConformer[13].channel typename "\"ned.IdealChannel\""
par NSFNet_Network_MAN.Node1.edge_Node.assembler.Burst_Conformer.conformer1.outOBSConformer.channel typename "\"ned.IdealChannel\""
par NSFNet_Network_MAN.Node1.edge_Node.assembler.Burst_Conformer.conformer2.outOBSConformer.channel typename "\"ned.IdealChannel\""
par NSFNet_Network_MAN.Node1.edge_Node.assembler.Burst_Conformer.conformer3.outOBSConformer.channel typename "\"ned.IdealChannel\""
par NSFNet_Network_MAN.Node1.edge_Node.assembler.Burst_Conformer.conformer4.outOBSConformer.channel typename "\"ned.IdealChannel\""
par NSFNet_Network_MAN.Node1.edge_Node.assembler.Burst_Conformer.conformer5.outOBSConformer.channel typename "\"ned.IdealChannel\""
par NSFNet_Network_MAN.Node1.edge_Node.assembler.Burst_Conformer.conformer6.outOBSConformer.channel typename "\"ned.IdealChannel\""
par NSFNet_Network_MAN.Node1.edge_Node.assembler.Burst_Conformer.conformer7.outOBSConformer.channel typename "\"ned.IdealChannel\""
par NSFNet_Network_MAN.Node1.edge_Node.assembler.Burst_Conformer.conformer8.outOBSConformer.channel typename "\"ned.IdealChannel\""
par NSFNet_Network_MAN.Node1.edge_Node.assembler.Burst_Conformer.conformer9.outOBSConformer.channel typename "\"ned.IdealChannel\""
par NSFNet_Network_MAN.Node1.edge_Node.assembler.Burst_Conformer.conformer10.outOBSConformer.channel typename "\"ned.IdealChannel\""
par NSFNet_Network_MAN.Node1.edge_Node.assembler.Burst_Conformer.conformer11.outOBSConformer.channel typename "\"ned.IdealChannel\""
par NSFNet_Network_MAN.Node1.edge_Node.assembler.Burst_Conformer.conformer12.outOBSConformer.channel typename "\"ned.IdealChannel\""
par NSFNet_Network_MAN.Node1.edge_Node.assembler.Burst_Conformer.conformer13.outOBSConformer.channel typename "\"ned.IdealChannel\""
par NSFNet_Network_MAN.Node1.edge_Node.assembler.Burst_Conformer.conformer14.outOBSConformer.channel typename "\"ned.IdealChannel\""
par NSFNet_Network_MAN.Node1.edge_Node.assembler.Burst_Conformer.ConformerMUX.outMux.channel typename "\"ned.IdealChannel\""
par NSFNet_Network_MAN.Node1.edge_Node.assembler.Burst_Conformer.conformer1.inOBSConformer.channel typename "\"ned.IdealChannel\""
par NSFNet_Network_MAN.Node1.edge_Node.assembler.Burst_Conformer.conformer1.CoS_Classifier.outClassifier[0].channel typename "\"ned.IdealChannel\""
par NSFNet_Network_MAN.Node1.edge_Node.assembler.Burst_Conformer.conformer1.CoS_Classifier.outClassifier[1].channel typename "\"ned.IdealChannel\""
par NSFNet_Network_MAN.Node1.edge_Node.assembler.Burst_Conformer.conformer1.CoS_Classifier.outClassifier[2].channel typename "\"ned.IdealChannel\""
par NSFNet_Network_MAN.Node1.edge_Node.assembler.Burst_Conformer.conformer1.bufferClass1.outBuffer.channel typename "\"ned.IdealChannel\""
par NSFNet_Network_MAN.Node1.edge_Node.assembler.Burst_Conformer.conformer1.bufferClass2.outBuffer.channel typename "\"ned.IdealChannel\""
par NSFNet_Network_MAN.Node1.edge_Node.assembler.Burst_Conformer.conformer1.bufferClass3.outBuffer.channel typename "\"ned.IdealChannel\""
par NSFNet_Network_MAN.Node1.edge_Node.assembler.Burst_Conformer.conformer1.bufferMUX.outMux.channel typename "\"ned.IdealChannel\""
par NSFNet_Network_MAN.Node1.edge_Node.assembler.Burst_Conformer.conformer1.CoS_Classifier typename "\"Classifier\""
par NSFNet_Network_MAN.Node1.edge_Node.assembler.Burst_Conformer.conformer1.CoS_Classifier processDelay 3e-06
par NSFNet_Network_MAN.Node1.edge_Node.assembler.Burst_Conformer.conformer1.bufferMUX typename "\"MUX\""
par NSFNet_Network_MAN.Node1.edge_Node.assembler.Burst_Conformer.conformer1.bufferClass1 typename "\"Buffer\""
par NSFNet_Network_MAN.Node1.edge_Node.assembler.Burst_Conformer.conformer1.bufferClass1 msgLimitClass 67
par NSFNet_Network_MAN.Node1.edge_Node.assembler.Burst_Conformer.conformer1.bufferClass1 headerLength 20
par NSFNet_Network_MAN.Node1.edge_Node.assembler.Burst_Conformer.conformer1.bufferClass1 processDelay 1e-05
par NSFNet_Network_MAN.Node1.edge_Node.assembler.Burst_Conformer.conformer1.bufferClass1 timeLimitClass 0.04
par NSFNet_Network_MAN.Node1.edge_Node.assembler.Burst_Conformer.conformer1.bufferClass2 typename "\"Buffer\""
par NSFNet_Network_MAN.Node1.edge_Node.assembler.Burst_Conformer.conformer1.bufferClass2 msgLimitClass 20
par NSFNet_Network_MAN.Node1.edge_Node.assembler.Burst_Conformer.conformer1.bufferClass2 headerLength 20
par NSFNet_Network_MAN.Node1.edge_Node.assembler.Burst_Conformer.conformer1.bufferClass2 processDelay 1e-05
par NSFNet_Network_MAN.Node1.edge_Node.assembler.Burst_Conformer.conformer1.bufferClass2 timeLimitClass 0.12
par NSFNet_Network_MAN.Node1.edge_Node.assembler.Burst_Conformer.conformer1.bufferClass3 typename "\"Buffer\""
par NSFNet_Network_MAN.Node1.edge_Node.assembler.Burst_Conformer.conformer1.bufferClass3 msgLimitClass 27
par NSFNet_Network_MAN.Node1.edge_Node.assembler.Burst_Conformer.conformer1.bufferClass3 headerLength 20
par NSFNet_Network_MAN.Node1.edge_Node.assembler.Burst_Conformer.conformer1.bufferClass3 processDelay 1e-05
par NSFNet_Network_MAN.Node1.edge_Node.assembler.Burst_Conformer.conformer1.bufferClass3 timeLimitClass 0.2
par NSFNet_Network_MAN.Node1.edge_Node.assembler.Burst_Conformer.conformer1 typename "\"OBS_Conformer\""
par NSFNet_Network_MAN.Node1.edge_Node.assembler.Burst_Conformer.conformer2.inOBSConformer.channel typename "\"ned.IdealChannel\""
par NSFNet_Network_MAN.Node1.edge_Node.assembler.Burst_Conformer.conformer2.CoS_Classifier.outClassifier[0].channel typename "\"ned.IdealChannel\""
par NSFNet_Network_MAN.Node1.edge_Node.assembler.Burst_Conformer.conformer2.CoS_Classifier.outClassifier[1].channel typename "\"ned.IdealChannel\""
par NSFNet_Network_MAN.Node1.edge_Node.assembler.Burst_Conformer.conformer2.CoS_Classifier.outClassifier[2].channel typename "\"ned.IdealChannel\""
par NSFNet_Network_MAN.Node1.edge_Node.assembler.Burst_Conformer.conformer2.bufferClass1.outBuffer.channel typename "\"ned.IdealChannel\""
par NSFNet_Network_MAN.Node1.edge_Node.assembler.Burst_Conformer.conformer2.bufferClass2.outBuffer.channel typename "\"ned.IdealChannel\""
par NSFNet_Network_MAN.Node1.edge_Node.assembler.Burst_Conformer.conformer2.bufferClass3.outBuffer.channel typename "\"ned.IdealChannel\""
par NSFNet_Network_MAN.Node1.edge_Node.assembler.Burst_Conformer.conformer2.bufferMUX.outMux.channel typename "\"ned.IdealChannel\""
par NSFNet_Network_MAN.Node1.edge_Node.assembler.Burst_Conformer.conformer2.CoS_Classifier typename "\"Classifier\""
par NSFNet_Network_MAN.Node1.edge_Node.assembler.Burst_Conformer.conformer2.CoS_Classifier processDelay 3e-06
par NSFNet_Network_MAN.Node1.edge_Node.assembler.Burst_Conformer.conformer2.bufferMUX typename "\"MUX\""
par NSFNet_Network_MAN.Node1.edge_Node.assembler.Burst_Conformer.conformer2.bufferClass1 typename "\"Buffer\""
par NSFNet_Network_MAN.Node1.edge_Node.assembler.Burst_Conformer.conformer2.bufferClass1 msgLimitClass 67
par NSFNet_Network_MAN.Node1.edge_Node.assembler.Burst_Conformer.conformer2.bufferClass1 headerLength 20
par NSFNet_Network_MAN.Node1.edge_Node.assembler.Burst_Conformer.conformer2.bufferClass1 processDelay 1e-05
par NSFNet_Network_MAN.Node1.edge_Node.assembler.Burst_Conformer.conformer2.bufferClass1 timeLimitClass 0.04
par NSFNet_Network_MAN.Node1.edge_Node.assembler.Burst_Conformer.conformer2.bufferClass2 typename "\"Buffer\""
par NSFNet_Network_MAN.Node1.edge_Node.assembler.Burst_Conformer.conformer2.bufferClass2 msgLimitClass 20
par NSFNet_Network_MAN.Node1.edge_Node.assembler.Burst_Conformer.conformer2.bufferClass2 headerLength 20
par NSFNet_Network_MAN.Node1.edge_Node.assembler.Burst_Conformer.conformer2.bufferClass2 processDelay 1e-05
par NSFNet_Network_MAN.Node1.edge_Node.assembler.Burst_Conformer.conformer2.bufferClass2 timeLimitClass 0.12
par NSFNet_Network_MAN.Node1.edge_Node.assembler.Burst_Conformer.conformer2.bufferClass3 typename "\"Buffer\""
par NSFNet_Network_MAN.Node1.edge_Node.assembler.Burst_Conformer.conformer2.bufferClass3 msgLimitClass 27
par NSFNet_Network_MAN.Node1.edge_Node.assembler.Burst_Conformer.conformer2.bufferClass3 headerLength 20
par NSFNet_Network_MAN.Node1.edge_Node.assembler.Burst_Conformer.conformer2.bufferClass3 processDelay 1e-05
par NSFNet_Network_MAN.Node1.edge_Node.assembler.Burst_Conformer.conformer2.bufferClass3 timeLimitClass 0.2
par NSFNet_Network_MAN.Node1.edge_Node.assembler.Burst_Conformer.conformer2 typename "\"OBS_Conformer\""
par NSFNet_Network_MAN.Node1.edge_Node.assembler.Burst_Conformer.conformer3.inOBSConformer.channel typename "\"ned.IdealChannel\""
par NSFNet_Network_MAN.Node1.edge_Node.assembler.Burst_Conformer.conformer3.CoS_Classifier.outClassifier[0].channel typename "\"ned.IdealChannel\""
par NSFNet_Network_MAN.Node1.edge_Node.assembler.Burst_Conformer.conformer3.CoS_Classifier.outClassifier[1].channel typename "\"ned.IdealChannel\""
par NSFNet_Network_MAN.Node1.edge_Node.assembler.Burst_Conformer.conformer3.CoS_Classifier.outClassifier[2].channel typename "\"ned.IdealChannel\""
par NSFNet_Network_MAN.Node1.edge_Node.assembler.Burst_Conformer.conformer3.bufferClass1.outBuffer.channel typename "\"ned.IdealChannel\""
par NSFNet_Network_MAN.Node1.edge_Node.assembler.Burst_Conformer.conformer3.bufferClass2.outBuffer.channel typename "\"ned.IdealChannel\""
par NSFNet_Network_MAN.Node1.edge_Node.assembler.Burst_Conformer.conformer3.bufferClass3.outBuffer.channel typename "\"ned.IdealChannel\""
par NSFNet_Network_MAN.Node1.edge_Node.assembler.Burst_Conformer.conformer3.bufferMUX.outMux.channel typename "\"ned.IdealChannel\""
par NSFNet_Network_MAN.Node1.edge_Node.assembler.Burst_Conformer.conformer3.CoS_Classifier typename "\"Classifier\""
par NSFNet_Network_MAN.Node1.edge_Node.assembler.Burst_Conformer.conformer3.CoS_Classifier processDelay 3e-06
par NSFNet_Network_MAN.Node1.edge_Node.assembler.Burst_Conformer.conformer3.bufferMUX typename "\"MUX\""
par NSFNet_Network_MAN.Node1.edge_Node.assembler.Burst_Conformer.conformer3.bufferClass1 typename "\"Buffer\""
par NSFNet_Network_MAN.Node1.edge_Node.assembler.Burst_Conformer.conformer3.bufferClass1 msgLimitClass 67
par NSFNet_Network_MAN.Node1.edge_Node.assembler.Burst_Conformer.conformer3.bufferClass1 headerLength 20
par NSFNet_Network_MAN.Node1.edge_Node.assembler.Burst_Conformer.conformer3.bufferClass1 processDelay 1e-05
par NSFNet_Network_MAN.Node1.edge_Node.assembler.Burst_Conformer.conformer3.bufferClass1 timeLimitClass 0.04
par NSFNet_Network_MAN.Node1.edge_Node.assembler.Burst_Conformer.conformer3.bufferClass2 typename "\"Buffer\""
par NSFNet_Network_MAN.Node1.edge_Node.assembler.Burst_Conformer.conformer3.bufferClass2 msgLimitClass 20
par NSFNet_Network_MAN.Node1.edge_Node.assembler.Burst_Conformer.conformer3.bufferClass2 headerLength 20
par NSFNet_Network_MAN.Node1.edge_Node.assembler.Burst_Conformer.conformer3.bufferClass2 processDelay 1e-05
par NSFNet_Network_MAN.Node1.edge_Node.assembler.Burst_Conformer.conformer3.bufferClass2 timeLimitClass 0.12
par NSFNet_Network_MAN.Node1.edge_Node.assembler.Burst_Conformer.conformer3.bufferClass3 typename "\"Buffer\""
par NSFNet_Network_MAN.Node1.edge_Node.assembler.Burst_Conformer.conformer3.bufferClass3 msgLimitClass 27
par NSFNet_Network_MAN.Node1.edge_Node.assembler.Burst_Conformer.conformer3.bufferClass3 headerLength 20
par NSFNet_Network_MAN.Node1.edge_Node.assembler.Burst_Conformer.conformer3.bufferClass3 processDelay 1e-05
par NSFNet_Network_MAN.Node1.edge_Node.assembler.Burst_Conformer.conformer3.bufferClass3 timeLimitClass 0.2
par NSFNet_Network_MAN.Node1.edge_Node.assembler.Burst_Conformer.conformer3 typename "\"OBS_Conformer\""
par NSFNet_Network_MAN.Node1.edge_Node.assembler.Burst_Conformer.conformer4.inOBSConformer.channel typename "\"ned.IdealChannel\""
par NSFNet_Network_MAN.Node1.edge_Node.assembler.Burst_Conformer.conformer4.CoS_Classifier.outClassifier[0].channel typename "\"ned.IdealChannel\""
par NSFNet_Network_MAN.Node1.edge_Node.assembler.Burst_Conformer.conformer4.CoS_Classifier.outClassifier[1].channel typename "\"ned.IdealChannel\""
par NSFNet_Network_MAN.Node1.edge_Node.assembler.Burst_Conformer.conformer4.CoS_Classifier.outClassifier[2].channel typename "\"ned.IdealChannel\""
par NSFNet_Network_MAN.Node1.edge_Node.assembler.Burst_Conformer.conformer4.bufferClass1.outBuffer.channel typename "\"ned.IdealChannel\""
par NSFNet_Network_MAN.Node1.edge_Node.assembler.Burst_Conformer.conformer4.bufferClass2.outBuffer.channel typename "\"ned.IdealChannel\""
par NSFNet_Network_MAN.Node1.edge_Node.assembler.Burst_Conformer.conformer4.bufferClass3.outBuffer.channel typename "\"ned.IdealChannel\""
par NSFNet_Network_MAN.Node1.edge_Node.assembler.Burst_Conformer.conformer4.bufferMUX.outMux.channel typename "\"ned.IdealChannel\""
par NSFNet_Network_MAN.Node1.edge_Node.assembler.Burst_Conformer.conformer4.CoS_Classifier typename "\"Classifier\""
par NSFNet_Network_MAN.Node1.edge_Node.assembler.Burst_Conformer.conformer4.CoS_Classifier processDelay 3e-06
par NSFNet_Network_MAN.Node1.edge_Node.assembler.Burst_Conformer.conformer4.bufferMUX typename "\"MUX\""
par NSFNet_Network_MAN.Node1.edge_Node.assembler.Burst_Conformer.conformer4.bufferClass1 typename "\"Buffer\""
par NSFNet_Network_MAN.Node1.edge_Node.assembler.Burst_Conformer.conformer4.bufferClass1 msgLimitClass 67
par NSFNet_Network_MAN.Node1.edge_Node.assembler.Burst_Conformer.conformer4.bufferClass1 headerLength 20
par NSFNet_Network_MAN.Node1.edge_Node.assembler.Burst_Conformer.conformer4.bufferClass1 processDelay 1e-05
par NSFNet_Network_MAN.Node1.edge_Node.assembler.Burst_Conformer.conformer4.bufferClass1 timeLimitClass 0.04
par NSFNet_Network_MAN.Node1.edge_Node.assembler.Burst_Conformer.conformer4.bufferClass2 typename "\"Buffer\""
par NSFNet_Network_MAN.Node1.edge_Node.assembler.Burst_Conformer.conformer4.bufferClass2 msgLimitClass 20
par NSFNet_Network_MAN.Node1.edge_Node.assembler.Burst_Conformer.conformer4.bufferClass2 headerLength 20
par NSFNet_Network_MAN.Node1.edge_Node.assembler.Burst_Conformer.conformer4.bufferClass2 processDelay 1e-05
par NSFNet_Network_MAN.Node1.edge_Node.assembler.Burst_Conformer.conformer4.bufferClass2 timeLimitClass 0.12
par NSFNet_Network_MAN.Node1.edge_Node.assembler.Burst_Conformer.conformer4.bufferClass3 typename "\"Buffer\""
par NSFNet_Network_MAN.Node1.edge_Node.assembler.Burst_Conformer.conformer4.bufferClass3 msgLimitClass 27
par NSFNet_Network_MAN.Node1.edge_Node.assembler.Burst_Conformer.conformer4.bufferClass3 headerLength 20
par NSFNet_Network_MAN.Node1.edge_Node.assembler.Burst_Conformer.conformer4.bufferClass3 processDelay 1e-05
par NSFNet_Network_MAN.Node1.edge_Node.assembler.Burst_Conformer.conformer4.bufferClass3 timeLimitClass 0.2
par NSFNet_Network_MAN.Node1.edge_Node.assembler.Burst_Conformer.conformer4 typename "\"OBS_Conformer\""
par NSFNet_Network_MAN.Node1.edge_Node.assembler.Burst_Conformer.conformer5.inOBSConformer.channel typename "\"ned.IdealChannel\""
par NSFNet_Network_MAN.Node1.edge_Node.assembler.Burst_Conformer.conformer5.CoS_Classifier.outClassifier[0].channel typename "\"ned.IdealChannel\""
par NSFNet_Network_MAN.Node1.edge_Node.assembler.Burst_Conformer.conformer5.CoS_Classifier.outClassifier[1].channel typename "\"ned.IdealChannel\""
par NSFNet_Network_MAN.Node1.edge_Node.assembler.Burst_Conformer.conformer5.CoS_Classifier.outClassifier[2].channel typename "\"ned.IdealChannel\""
par NSFNet_Network_MAN.Node1.edge_Node.assembler.Burst_Conformer.conformer5.bufferClass1.outBuffer.channel typename "\"ned.IdealChannel\""
par NSFNet_Network_MAN.Node1.edge_Node.assembler.Burst_Conformer.conformer5.bufferClass2.outBuffer.channel typename "\"ned.IdealChannel\""
par NSFNet_Network_MAN.Node1.edge_Node.assembler.Burst_Conformer.conformer5.bufferClass3.outBuffer.channel typename "\"ned.IdealChannel\""
par NSFNet_Network_MAN.Node1.edge_Node.assembler.Burst_Conformer.conformer5.bufferMUX.outMux.channel typename "\"ned.IdealChannel\""
par NSFNet_Network_MAN.Node1.edge_Node.assembler.Burst_Conformer.conformer5.CoS_Classifier typename "\"Classifier\""
par NSFNet_Network_MAN.Node1.edge_Node.assembler.Burst_Conformer.conformer5.CoS_Classifier processDelay 3e-06
par NSFNet_Network_MAN.Node1.edge_Node.assembler.Burst_Conformer.conformer5.bufferMUX typename "\"MUX\""
par NSFNet_Network_MAN.Node1.edge_Node.assembler.Burst_Conformer.conformer5.bufferClass1 typename "\"Buffer\""
par NSFNet_Network_MAN.Node1.edge_Node.assembler.Burst_Conformer.conformer5.bufferClass1 msgLimitClass 67
par NSFNet_Network_MAN.Node1.edge_Node.assembler.Burst_Conformer.conformer5.bufferClass1 headerLength 20
par NSFNet_Network_MAN.Node1.edge_Node.assembler.Burst_Conformer.conformer5.bufferClass1 processDelay 1e-05
par NSFNet_Network_MAN.Node1.edge_Node.assembler.Burst_Conformer.conformer5.bufferClass1 timeLimitClass 0.04
par NSFNet_Network_MAN.Node1.edge_Node.assembler.Burst_Conformer.conformer5.bufferClass2 typename "\"Buffer\""
par NSFNet_Network_MAN.Node1.edge_Node.assembler.Burst_Conformer.conformer5.bufferClass2 msgLimitClass 20
par NSFNet_Network_MAN.Node1.edge_Node.assembler.Burst_Conformer.conformer5.bufferClass2 headerLength 20
par NSFNet_Network_MAN.Node1.edge_Node.assembler.Burst_Conformer.conformer5.bufferClass2 processDelay 1e-05
par NSFNet_Network_MAN.Node1.edge_Node.assembler.Burst_Conformer.conformer5.bufferClass2 timeLimitClass 0.12
par NSFNet_Network_MAN.Node1.edge_Node.assembler.Burst_Conformer.conformer5.bufferClass3 typename "\"Buffer\""
par NSFNet_Network_MAN.Node1.edge_Node.assembler.Burst_Conformer.conformer5.bufferClass3 msgLimitClass 27
par NSFNet_Network_MAN.Node1.edge_Node.assembler.Burst_Conformer.conformer5.bufferClass3 headerLength 20
par NSFNet_Network_MAN.Node1.edge_Node.assembler.Burst_Conformer.conformer5.bufferClass3 processDelay 1e-05
par NSFNet_Network_MAN.Node1.edge_Node.assembler.Burst_Conformer.conformer5.bufferClass3 timeLimitClass 0.2
par NSFNet_Network_MAN.Node1.edge_Node.assembler.Burst_Conformer.conformer5 typename "\"OBS_Conformer\""
par NSFNet_Network_MAN.Node1.edge_Node.assembler.Burst_Conformer.conformer6.inOBSConformer.channel typename "\"ned.IdealChannel\""
par NSFNet_Network_MAN.Node1.edge_Node.assembler.Burst_Conformer.conformer6.CoS_Classifier.outClassifier[0].channel typename "\"ned.IdealChannel\""
par NSFNet_Network_MAN.Node1.edge_Node.assembler.Burst_Conformer.conformer6.CoS_Classifier.outClassifier[1].channel typename "\"ned.IdealChannel\""
par NSFNet_Network_MAN.Node1.edge_Node.assembler.Burst_Conformer.conformer6.CoS_Classifier.outClassifier[2].channel typename "\"ned.IdealChannel\""
par NSFNet_Network_MAN.Node1.edge_Node.assembler.Burst_Conformer.conformer6.bufferClass1.outBuffer.channel typename "\"ned.IdealChannel\""
par NSFNet_Network_MAN.Node1.edge_Node.assembler.Burst_Conformer.conformer6.bufferClass2.outBuffer.channel typename "\"ned.IdealChannel\""
par NSFNet_Network_MAN.Node1.edge_Node.assembler.Burst_Conformer.conformer6.bufferClass3.outBuffer.channel typename "\"ned.IdealChannel\""
par NSFNet_Network_MAN.Node1.edge_Node.assembler.Burst_Conformer.conformer6.bufferMUX.outMux.channel typename "\"ned.IdealChannel\""
par NSFNet_Network_MAN.Node1.edge_Node.assembler.Burst_Conformer.conformer6.CoS_Classifier typename "\"Classifier\""
par NSFNet_Network_MAN.Node1.edge_Node.assembler.Burst_Conformer.conformer6.CoS_Classifier processDelay 3e-06
par NSFNet_Network_MAN.Node1.edge_Node.assembler.Burst_Conformer.conformer6.bufferMUX typename "\"MUX\""
par NSFNet_Network_MAN.Node1.edge_Node.assembler.Burst_Conformer.conformer6.bufferClass1 typename "\"Buffer\""
par NSFNet_Network_MAN.Node1.edge_Node.assembler.Burst_Conformer.conformer6.bufferClass1 msgLimitClass 67
par NSFNet_Network_MAN.Node1.edge_Node.assembler.Burst_Conformer.conformer6.bufferClass1 headerLength 20
par NSFNet_Network_MAN.Node1.edge_Node.assembler.Burst_Conformer.conformer6.bufferClass1 processDelay 1e-05
par NSFNet_Network_MAN.Node1.edge_Node.assembler.Burst_Conformer.conformer6.bufferClass1 timeLimitClass 0.04
par NSFNet_Network_MAN.Node1.edge_Node.assembler.Burst_Conformer.conformer6.bufferClass2 typename "\"Buffer\""
par NSFNet_Network_MAN.Node1.edge_Node.assembler.Burst_Conformer.conformer6.bufferClass2 msgLimitClass 20
par NSFNet_Network_MAN.Node1.edge_Node.assembler.Burst_Conformer.conformer6.bufferClass2 headerLength 20
par NSFNet_Network_MAN.Node1.edge_Node.assembler.Burst_Conformer.conformer6.bufferClass2 processDelay 1e-05
par NSFNet_Network_MAN.Node1.edge_Node.assembler.Burst_Conformer.conformer6.bufferClass2 timeLimitClass 0.12
par NSFNet_Network_MAN.Node1.edge_Node.assembler.Burst_Conformer.conformer6.bufferClass3 typename "\"Buffer\""
[...]
par NSFNet_Network_MAN.Node14.edge_Node.assembler.Burst_Conformer.conformer13.bufferClass3 typename "\"Buffer\""
par NSFNet_Network_MAN.Node14.edge_Node.assembler.Burst_Conformer.conformer13.bufferClass3 msgLimitClass 27
par NSFNet_Network_MAN.Node14.edge_Node.assembler.Burst_Conformer.conformer13.bufferClass3 headerLength 20
par NSFNet_Network_MAN.Node14.edge_Node.assembler.Burst_Conformer.conformer13.bufferClass3 processDelay 1e-05
par NSFNet_Network_MAN.Node14.edge_Node.assembler.Burst_Conformer.conformer13.bufferClass3 timeLimitClass 0.2
par NSFNet_Network_MAN.Node14.edge_Node.assembler.Burst_Conformer.conformer13 typename "\"OBS_Conformer\""
par NSFNet_Network_MAN.Node14.edge_Node.assembler.Burst_Conformer.conformer14.inOBSConformer.channel typename "\"ned.IdealChannel\""
par NSFNet_Network_MAN.Node14.edge_Node.assembler.Burst_Conformer.conformer14.CoS_Classifier.outClassifier[0].channel typename "\"ned.IdealChannel\""
par NSFNet_Network_MAN.Node14.edge_Node.assembler.Burst_Conformer.conformer14.CoS_Classifier.outClassifier[1].channel typename "\"ned.IdealChannel\""
par NSFNet_Network_MAN.Node14.edge_Node.assembler.Burst_Conformer.conformer14.CoS_Classifier.outClassifier[2].channel typename "\"ned.IdealChannel\""
par NSFNet_Network_MAN.Node14.edge_Node.assembler.Burst_Conformer.conformer14.bufferClass1.outBuffer.channel typename "\"ned.IdealChannel\""
par NSFNet_Network_MAN.Node14.edge_Node.assembler.Burst_Conformer.conformer14.bufferClass2.outBuffer.channel typename "\"ned.IdealChannel\""
par NSFNet_Network_MAN.Node14.edge_Node.assembler.Burst_Conformer.conformer14.bufferClass3.outBuffer.channel typename "\"ned.IdealChannel\""
par NSFNet_Network_MAN.Node14.edge_Node.assembler.Burst_Conformer.conformer14.bufferMUX.outMux.channel typename "\"ned.IdealChannel\""
par NSFNet_Network_MAN.Node14.edge_Node.assembler.Burst_Conformer.conformer14.CoS_Classifier typename "\"Classifier\""
par NSFNet_Network_MAN.Node14.edge_Node.assembler.Burst_Conformer.conformer14.CoS_Classifier processDelay 3e-06
par NSFNet_Network_MAN.Node14.edge_Node.assembler.Burst_Conformer.conformer14.bufferMUX typename "\"MUX\""
par NSFNet_Network_MAN.Node14.edge_Node.assembler.Burst_Conformer.conformer14.bufferClass1 typename "\"Buffer\""
par NSFNet_Network_MAN.Node14.edge_Node.assembler.Burst_Conformer.conformer14.bufferClass1 msgLimitClass 67
par NSFNet_Network_MAN.Node14.edge_Node.assembler.Burst_Conformer.conformer14.bufferClass1 headerLength 20
par NSFNet_Network_MAN.Node14.edge_Node.assembler.Burst_Conformer.conformer14.bufferClass1 processDelay 1e-05
par NSFNet_Network_MAN.Node14.edge_Node.assembler.Burst_Conformer.conformer14.bufferClass1 timeLimitClass 0.04
par NSFNet_Network_MAN.Node14.edge_Node.assembler.Burst_Conformer.conformer14.bufferClass2 typename "\"Buffer\""
par NSFNet_Network_MAN.Node14.edge_Node.assembler.Burst_Conformer.conformer14.bufferClass2 msgLimitClass 20
par NSFNet_Network_MAN.Node14.edge_Node.assembler.Burst_Conformer.conformer14.bufferClass2 headerLength 20
par NSFNet_Network_MAN.Node14.edge_Node.assembler.Burst_Conformer.conformer14.bufferClass2 processDelay 1e-05
par NSFNet_Network_MAN.Node14.edge_Node.assembler.Burst_Conformer.conformer14.bufferClass2 timeLimitClass 0.12
par NSFNet_Network_MAN.Node14.edge_Node.assembler.Burst_Conformer.conformer14.bufferClass3 typename "\"Buffer\""
par NSFNet_Network_MAN.Node14.edge_Node.assembler.Burst_Conformer.conformer14.bufferClass3 msgLimitClass 27
par NSFNet_Network_MAN.Node14.edge_Node.assembler.Burst_Conformer.conformer14.bufferClass3 headerLength 20
par NSFNet_Network_MAN.Node14.edge_Node.assembler.Burst_Conformer.conformer14.bufferClass3 processDelay 1e-05
par NSFNet_Network_MAN.Node14.edge_Node.assembler.Burst_Conformer.conformer14.bufferClass3 timeLimitClass 0.2
par NSFNet_Network_MAN.Node14.edge_Node.assembler.Burst_Conformer.conformer14 typename "\"OBS_Conformer\""
par NSFNet_Network_MAN.Node14.edge_Node.assembler.Burst_Conformer.ConformerMUX typename "\"MUX\""
par NSFNet_Network_MAN.Node14.edge_Node.assembler.Burst_Conformer typename "\"Conformer\""
par NSFNet_Network_MAN.Node14.edge_Node.assembler.sender.inSender.channel typename "\"ned.IdealChannel\""
par NSFNet_Network_MAN.Node14.edge_Node.assembler.sender.buffer.outSenderBuffer.channel typename "\"ned.IdealChannel\""
par NSFNet_Network_MAN.Node14.edge_Node.assembler.sender.OEO.outOEO.channel typename "\"ned.IdealChannel\""
par NSFNet_Network_MAN.Node14.edge_Node.assembler.sender.buffer.outToControlUnit.channel typename "\"ned.IdealChannel\""
par NSFNet_Network_MAN.Node14.edge_Node.assembler.sender.inFromControlUnit.channel typename "\"ned.IdealChannel\""
par NSFNet_Network_MAN.Node14.edge_Node.assembler.sender.inFromDeconformer.channel typename "\"ned.IdealChannel\""
par NSFNet_Network_MAN.Node14.edge_Node.assembler.sender.buffer typename "\"Sender_Buffer\""
par NSFNet_Network_MAN.Node14.edge_Node.assembler.sender.buffer processDelay 5e-06
par NSFNet_Network_MAN.Node14.edge_Node.assembler.sender.OEO typename "\"OEO_Conversor\""
par NSFNet_Network_MAN.Node14.edge_Node.assembler.sender.OEO processDelay 1e-06
par NSFNet_Network_MAN.Node14.edge_Node.assembler.sender typename "\"Sender\""
par NSFNet_Network_MAN.Node14.edge_Node.assembler typename "\"Assembler\""
par NSFNet_Network_MAN.Node14.edge_Node.disassembler.deconformer.outDeconformer.channel typename "\"ned.IdealChannel\""
par NSFNet_Network_MAN.Node14.edge_Node.disassembler.inDisassembler.channel typename "\"ned.IdealChannel\""
par NSFNet_Network_MAN.Node14.edge_Node.disassembler.OEO.outOEO.channel typename "\"ned.IdealChannel\""
par NSFNet_Network_MAN.Node14.edge_Node.disassembler.deconformer.outToAssembler.channel typename "\"ned.IdealChannel\""
par NSFNet_Network_MAN.Node14.edge_Node.disassembler.deconformer typename "\"Deconformer\""
par NSFNet_Network_MAN.Node14.edge_Node.disassembler.deconformer processDelay 1e-05
par NSFNet_Network_MAN.Node14.edge_Node.disassembler.OEO typename "\"OEO_Conversor\""
par NSFNet_Network_MAN.Node14.edge_Node.disassembler.OEO processDelay 1e-06
par NSFNet_Network_MAN.Node14.edge_Node.disassembler typename "\"Disassembler\""
par NSFNet_Network_MAN.Node14.edge_Node typename "\"Edge_Node\""
par NSFNet_Network_MAN.Node14 typename "\"OBS_Node\""
par NSFNet_Network_MAN.Node14 nodeID 14
par NSFNet_Network_MAN.controller.inOEO.outOEO.channel typename "\"ned.IdealChannel\""
par NSFNet_Network_MAN.controller.controller_CU.outController.channel typename "\"ned.IdealChannel\""
par NSFNet_Network_MAN.controller.mux.outMux.channel typename "\"ned.IdealChannel\""
par NSFNet_Network_MAN.controller.outOEO.outOEO.channel typename "\"ned.IdealChannel\""
par NSFNet_Network_MAN.controller.inController[0].channel typename "\"ned.IdealChannel\""
par NSFNet_Network_MAN.controller.inController[1].channel typename "\"ned.IdealChannel\""
par NSFNet_Network_MAN.controller.inController[2].channel typename "\"ned.IdealChannel\""
par NSFNet_Network_MAN.controller.inController[3].channel typename "\"ned.IdealChannel\""
par NSFNet_Network_MAN.controller.inController[4].channel typename "\"ned.IdealChannel\""
par NSFNet_Network_MAN.controller.inController[5].channel typename "\"ned.IdealChannel\""
par NSFNet_Network_MAN.controller.inController[6].channel typename "\"ned.IdealChannel\""
par NSFNet_Network_MAN.controller.inController[7].channel typename "\"ned.IdealChannel\""
par NSFNet_Network_MAN.controller.inController[8].channel typename "\"ned.IdealChannel\""
par NSFNet_Network_MAN.controller.inController[9].channel typename "\"ned.IdealChannel\""
par NSFNet_Network_MAN.controller.inController[10].channel typename "\"ned.IdealChannel\""
par NSFNet_Network_MAN.controller.inController[11].channel typename "\"ned.IdealChannel\""
par NSFNet_Network_MAN.controller.inController[12].channel typename "\"ned.IdealChannel\""
par NSFNet_Network_MAN.controller.inController[13].channel typename "\"ned.IdealChannel\""
par NSFNet_Network_MAN.controller.controller_Classifier.outClassifier[0].channel typename "\"ned.IdealChannel\""
par NSFNet_Network_MAN.controller.controller_Classifier.outClassifier[1].channel typename "\"ned.IdealChannel\""
par NSFNet_Network_MAN.controller.controller_Classifier.outClassifier[2].channel typename "\"ned.IdealChannel\""
par NSFNet_Network_MAN.controller.controller_Classifier.outClassifier[3].channel typename "\"ned.IdealChannel\""
par NSFNet_Network_MAN.controller.controller_Classifier.outClassifier[4].channel typename "\"ned.IdealChannel\""
par NSFNet_Network_MAN.controller.controller_Classifier.outClassifier[5].channel typename "\"ned.IdealChannel\""
par NSFNet_Network_MAN.controller.controller_Classifier.outClassifier[6].channel typename "\"ned.IdealChannel\""
par NSFNet_Network_MAN.controller.controller_Classifier.outClassifier[7].channel typename "\"ned.IdealChannel\""
par NSFNet_Network_MAN.controller.controller_Classifier.outClassifier[8].channel typename "\"ned.IdealChannel\""
par NSFNet_Network_MAN.controller.controller_Classifier.outClassifier[9].channel typename "\"ned.IdealChannel\""
par NSFNet_Network_MAN.controller.controller_Classifier.outClassifier[10].channel typename "\"ned.IdealChannel\""
par NSFNet_Network_MAN.controller.controller_Classifier.outClassifier[11].channel typename "\"ned.IdealChannel\""
par NSFNet_Network_MAN.controller.controller_Classifier.outClassifier[12].channel typename "\"ned.IdealChannel\""
par NSFNet_Network_MAN.controller.controller_Classifier.outClassifier[13].channel typename "\"ned.IdealChannel\""
par NSFNet_Network_MAN.controller.inOEO typename "\"OEO_Conversor\""
par NSFNet_Network_MAN.controller.inOEO processDelay 1e-06
par NSFNet_Network_MAN.controller.outOEO typename "\"OEO_Conversor\""
par NSFNet_Network_MAN.controller.outOEO processDelay 1e-06
par NSFNet_Network_MAN.controller.controller_CU.message_Processor.outToIA.channel typename "\"ned.IdealChannel\""
par NSFNet_Network_MAN.controller.controller_CU.intelligent_Agent.outIA.channel typename "\"ned.IdealChannel\""
par NSFNet_Network_MAN.controller.controller_CU.message_Processor.outToNetwork.channel typename "\"ned.IdealChannel\""
par NSFNet_Network_MAN.controller.controller_CU.inController.channel typename "\"ned.IdealChannel\""
par NSFNet_Network_MAN.controller.controller_CU.message_Processor typename "\"Message_Processor\""
par NSFNet_Network_MAN.controller.controller_CU.message_Processor numWavelengths 1500
par NSFNet_Network_MAN.controller.controller_CU.message_Processor processDelay 5e-06
par NSFNet_Network_MAN.controller.controller_CU.message_Processor timeLimitProcess 1
par NSFNet_Network_MAN.controller.controller_CU.message_Processor resourseTolerationTime1 0.08
par NSFNet_Network_MAN.controller.controller_CU.message_Processor resourseTolerationTime2 0.24
par NSFNet_Network_MAN.controller.controller_CU.message_Processor resourseTolerationTime3 0.4
par NSFNet_Network_MAN.controller.controller_CU.intelligent_Agent typename "\"Intelligent_Agent\""
par NSFNet_Network_MAN.controller.controller_CU.intelligent_Agent processDelay 2e-06
par NSFNet_Network_MAN.controller.controller_CU typename "\"Controller_CU\""
par NSFNet_Network_MAN.controller.mux typename "\"MUX\""
par NSFNet_Network_MAN.controller.controller_Classifier typename "\"Controller_Classifier\""
par NSFNet_Network_MAN.controller.controller_Classifier processDelay 3e-06
par NSFNet_Network_MAN.controller typename "\"Controller\""
par NSFNet_Network_MAN.Host1.source.outSource.channel typename "\"ned.IdealChannel\""
par NSFNet_Network_MAN.Host1.inHost.channel typename "\"ned.IdealChannel\""
par NSFNet_Network_MAN.Host1.source typename "\"Source\""
par NSFNet_Network_MAN.Host1.source messagesToSend 20
par NSFNet_Network_MAN.Host1.source messageTimeGeneration 3.23e-06
par NSFNet_Network_MAN.Host1.source numberOfNodes 14
par NSFNet_Network_MAN.Host1.sink typename "\"Sink\""
par NSFNet_Network_MAN.Host1.sink numberOfNodes 14
par NSFNet_Network_MAN.Host1 typename "\"Host\""
par NSFNet_Network_MAN.Host1 hostID 1
par NSFNet_Network_MAN.Host2.source.outSource.channel typename "\"ned.IdealChannel\""
par NSFNet_Network_MAN.Host2.inHost.channel typename "\"ned.IdealChannel\""
par NSFNet_Network_MAN.Host2.source typename "\"Source\""
par NSFNet_Network_MAN.Host2.source messagesToSend 20
par NSFNet_Network_MAN.Host2.source messageTimeGeneration 3.23e-06
par NSFNet_Network_MAN.Host2.source numberOfNodes 14
par NSFNet_Network_MAN.Host2.sink typename "\"Sink\""
par NSFNet_Network_MAN.Host2.sink numberOfNodes 14
par NSFNet_Network_MAN.Host2 typename "\"Host\""
par NSFNet_Network_MAN.Host2 hostID 2
par NSFNet_Network_MAN.Host3.source.outSource.channel typename "\"ned.IdealChannel\""
par NSFNet_Network_MAN.Host3.inHost.channel typename "\"ned.IdealChannel\""
par NSFNet_Network_MAN.Host3.source typename "\"Source\""
par NSFNet_Network_MAN.Host3.source messagesToSend 20
par NSFNet_Network_MAN.Host3.source messageTimeGeneration 3.23e-06
par NSFNet_Network_MAN.Host3.source numberOfNodes 14
par NSFNet_Network_MAN.Host3.sink typename "\"Sink\""
par NSFNet_Network_MAN.Host3.sink numberOfNodes 14
par NSFNet_Network_MAN.Host3 typename "\"Host\""
par NSFNet_Network_MAN.Host3 hostID 3
par NSFNet_Network_MAN.Host4.source.outSource.channel typename "\"ned.IdealChannel\""
par NSFNet_Network_MAN.Host4.inHost.channel typename "\"ned.IdealChannel\""
par NSFNet_Network_MAN.Host4.source typename "\"Source\""
par NSFNet_Network_MAN.Host4.source messagesToSend 20
par NSFNet_Network_MAN.Host4.source messageTimeGeneration 3.23e-06
par NSFNet_Network_MAN.Host4.source numberOfNodes 14
par NSFNet_Network_MAN.Host4.sink typename "\"Sink\""
par NSFNet_Network_MAN.Host4.sink numberOfNodes 14
par NSFNet_Network_MAN.Host4 typename "\"Host\""
par NSFNet_Network_MAN.Host4 hostID 4
par NSFNet_Network_MAN.Host5.source.outSource.channel typename "\"ned.IdealChannel\""
par NSFNet_Network_MAN.Host5.inHost.channel typename "\"ned.IdealChannel\""
par NSFNet_Network_MAN.Host5.source typename "\"Source\""
par NSFNet_Network_MAN.Host5.source messagesToSend 20
par NSFNet_Network_MAN.Host5.source messageTimeGeneration 3.23e-06
par NSFNet_Network_MAN.Host5.source numberOfNodes 14
par NSFNet_Network_MAN.Host5.sink typename "\"Sink\""
par NSFNet_Network_MAN.Host5.sink numberOfNodes 14
par NSFNet_Network_MAN.Host5 typename "\"Host\""
par NSFNet_Network_MAN.Host5 hostID 5
par NSFNet_Network_MAN.Host6.source.outSource.channel typename "\"ned.IdealChannel\""
par NSFNet_Network_MAN.Host6.inHost.channel typename "\"ned.IdealChannel\""
par NSFNet_Network_MAN.Host6.source typename "\"Source\""
par NSFNet_Network_MAN.Host6.source messagesToSend 20
par NSFNet_Network_MAN.Host6.source messageTimeGeneration 3.23e-06
par NSFNet_Network_MAN.Host6.source numberOfNodes 14
par NSFNet_Network_MAN.Host6.sink typename "\"Sink\""
par NSFNet_Network_MAN.Host6.sink numberOfNodes 14
par NSFNet_Network_MAN.Host6 typename "\"Host\""
par NSFNet_Network_MAN.Host6 hostID 6
par NSFNet_Network_MAN.Host7.source.outSource.channel typename "\"ned.IdealChannel\""
par NSFNet_Network_MAN.Host7.inHost.channel typename "\"ned.IdealChannel\""
par NSFNet_Network_MAN.Host7.source typename "\"Source\""
par NSFNet_Network_MAN.Host7.source messagesToSend 20
par NSFNet_Network_MAN.Host7.source messageTimeGeneration 3.23e-06
par NSFNet_Network_MAN.Host7.source numberOfNodes 14
par NSFNet_Network_MAN.Host7.sink typename "\"Sink\""
par NSFNet_Network_MAN.Host7.sink numberOfNodes 14
par NSFNet_Network_MAN.Host7 typename "\"Host\""
par NSFNet_Network_MAN.Host7 hostID 7
par NSFNet_Network_MAN.Host8.source.outSource.channel typename "\"ned.IdealChannel\""
par NSFNet_Network_MAN.Host8.inHost.channel typename "\"ned.IdealChannel\""
par NSFNet_Network_MAN.Host8.source typename "\"Source\""
par NSFNet_Network_MAN.Host8.source messagesToSend 20
par NSFNet_Network_MAN.Host8.source messageTimeGeneration 3.23e-06
par NSFNet_Network_MAN.Host8.source numberOfNodes 14
par NSFNet_Network_MAN.Host8.sink typename "\"Sink\""
par NSFNet_Network_MAN.Host8.sink numberOfNodes 14
par NSFNet_Network_MAN.Host8 typename "\"Host\""
par NSFNet_Network_MAN.Host8 hostID 8
par NSFNet_Network_MAN.Host9.source.outSource.channel typename "\"ned.IdealChannel\""
par NSFNet_Network_MAN.Host9.inHost.channel typename "\"ned.IdealChannel\""
par NSFNet_Network_MAN.Host9.source typename "\"Source\""
par NSFNet_Network_MAN.Host9.source messagesToSend 20
par NSFNet_Network_MAN.Host9.source messageTimeGeneration 3.23e-06
par NSFNet_Network_MAN.Host9.source numberOfNodes 14
par NSFNet_Network_MAN.Host9.sink typename "\"Sink\""
par NSFNet_Network_MAN.Host9.sink numberOfNodes 14
par NSFNet_Network_MAN.Host9 typename "\"Host\""
par NSFNet_Network_MAN.Host9 hostID 9
par NSFNet_Network_MAN.Host10.source.outSource.channel typename "\"ned.IdealChannel\""
par NSFNet_Network_MAN.Host10.inHost.channel typename "\"ned.IdealChannel\""
par NSFNet_Network_MAN.Host10.source typename "\"Source\""
par NSFNet_Network_MAN.Host10.source messagesToSend 20
par NSFNet_Network_MAN.Host10.source messageTimeGeneration 3.23e-06
par NSFNet_Network_MAN.Host10.source numberOfNodes 14
par NSFNet_Network_MAN.Host10.sink typename "\"Sink\""
par NSFNet_Network_MAN.Host10.sink numberOfNodes 14
par NSFNet_Network_MAN.Host10 typename "\"Host\""
par NSFNet_Network_MAN.Host10 hostID 10
par NSFNet_Network_MAN.Host11.source.outSource.channel typename "\"ned.IdealChannel\""
par NSFNet_Network_MAN.Host11.inHost.channel typename "\"ned.IdealChannel\""
par NSFNet_Network_MAN.Host11.source typename "\"Source\""
par NSFNet_Network_MAN.Host11.source messagesToSend 20
par NSFNet_Network_MAN.Host11.source messageTimeGeneration 3.23e-06
par NSFNet_Network_MAN.Host11.source numberOfNodes 14
par NSFNet_Network_MAN.Host11.sink typename "\"Sink\""
par NSFNet_Network_MAN.Host11.sink numberOfNodes 14
par NSFNet_Network_MAN.Host11 typename "\"Host\""
par NSFNet_Network_MAN.Host11 hostID 11
par NSFNet_Network_MAN.Host12.source.outSource.channel typename "\"ned.IdealChannel\""
par NSFNet_Network_MAN.Host12.inHost.channel typename "\"ned.IdealChannel\""
par NSFNet_Network_MAN.Host12.source typename "\"Source\""
par NSFNet_Network_MAN.Host12.source messagesToSend 20
par NSFNet_Network_MAN.Host12.source messageTimeGeneration 3.23e-06
par NSFNet_Network_MAN.Host12.source numberOfNodes 14
par NSFNet_Network_MAN.Host12.sink typename "\"Sink\""
par NSFNet_Network_MAN.Host12.sink numberOfNodes 14
par NSFNet_Network_MAN.Host12 typename "\"Host\""
par NSFNet_Network_MAN.Host12 hostID 12
par NSFNet_Network_MAN.Host13.source.outSource.channel typename "\"ned.IdealChannel\""
par NSFNet_Network_MAN.Host13.inHost.channel typename "\"ned.IdealChannel\""
par NSFNet_Network_MAN.Host13.source typename "\"Source\""
par NSFNet_Network_MAN.Host13.source messagesToSend 20
par NSFNet_Network_MAN.Host13.source messageTimeGeneration 3.23e-06
par NSFNet_Network_MAN.Host13.source numberOfNodes 14
par NSFNet_Network_MAN.Host13.sink typename "\"Sink\""
par NSFNet_Network_MAN.Host13.sink numberOfNodes 14
par NSFNet_Network_MAN.Host13 typename "\"Host\""
par NSFNet_Network_MAN.Host13 hostID 13
par NSFNet_Network_MAN.Host14.source.outSource.channel typename "\"ned.IdealChannel\""
par NSFNet_Network_MAN.Host14.inHost.channel typename "\"ned.IdealChannel\""
par NSFNet_Network_MAN.Host14.source typename "\"Source\""
par NSFNet_Network_MAN.Host14.source messagesToSend 20
par NSFNet_Network_MAN.Host14.source messageTimeGeneration 3.23e-06
par NSFNet_Network_MAN.Host14.source numberOfNodes 14
par NSFNet_Network_MAN.Host14.sink typename "\"Sink\""
par NSFNet_Network_MAN.Host14.sink numberOfNodes 14
par NSFNet_Network_MAN.Host14 typename "\"Host\""
par NSFNet_Network_MAN.Host14 hostID 14
par NSFNet_Network_MAN typename "\"NSFNet_Network_MAN\""

